ZINC001611304822
 OpenBabel01062421073D

 20 19  0  0  0  0  0  0  0  0999 V2000
   -0.0162    1.3436    0.0094 N   0  0  0  0  0  0  0  0  0  0  0  0
    0.0021   -0.0041    0.0020 C   0  0  0  0  0  0  0  0  0  0  0  0
    1.0605   -0.5961   -0.0113 O   0  0  0  0  0  0  0  0  0  0  0  0
   -1.2926   -0.7753    0.0102 C   0  0  0  0  0  0  0  0  0  0  0  0
   -1.0080   -2.1990   -0.0001 O   0  0  0  0  0  0  0  0  0  0  0  0
   -2.0612   -3.0311    0.0055 C   0  0  0  0  0  0  0  0  0  0  0  0
   -3.1839   -2.5845    0.0186 O   0  0  0  0  0  0  0  0  0  0  0  0
   -1.8436   -4.5223   -0.0046 C   0  0  0  0  0  0  0  0  0  0  0  0
   -3.1972   -5.2354    0.0045 C   0  0  0  0  0  0  0  0  0  0  0  0
   -2.9795   -6.7265   -0.0056 C   0  0  0  0  0  0  0  0  0  0  0  0
   -1.8467   -7.1771   -0.0189 O   0  5  0  0  0  0  0  0  0  0  0  0
   -3.9362   -7.4823   -0.0005 O   0  0  0  0  0  0  0  0  0  0  0  0
    0.8172    1.8399    0.0041 H   0  0  0  0  0  0  0  0  0  0  0  0
   -0.8627    1.8171    0.0160 H   0  0  0  0  0  0  0  0  0  0  0  0
   -1.8592   -0.5245    0.9070 H   0  0  0  0  0  0  0  0  0  0  0  0
   -1.8762   -0.5150   -0.8728 H   0  0  0  0  0  0  0  0  0  0  0  0
   -1.2912   -4.8028   -0.9014 H   0  0  0  0  0  0  0  0  0  0  0  0
   -1.2742   -4.8123    0.8784 H   0  0  0  0  0  0  0  0  0  0  0  0
   -3.7496   -4.9549    0.9013 H   0  0  0  0  0  0  0  0  0  0  0  0
   -3.7666   -4.9453   -0.8786 H   0  0  0  0  0  0  0  0  0  0  0  0
  1  2  1  0  0  0  0
  1 13  1  0  0  0  0
  1 14  1  0  0  0  0
  2  3  2  0  0  0  0
  2  4  1  0  0  0  0
  4  5  1  0  0  0  0
  4 15  1  0  0  0  0
  4 16  1  0  0  0  0
  5  6  1  0  0  0  0
  6  7  2  0  0  0  0
  6  8  1  0  0  0  0
  8  9  1  0  0  0  0
  8 17  1  0  0  0  0
  8 18  1  0  0  0  0
  9 10  1  0  0  0  0
  9 19  1  0  0  0  0
  9 20  1  0  0  0  0
 10 11  1  0  0  0  0
 10 12  2  0  0  0  0
M  CHG  1  11  -1
M  END
$$$$
ZINC001611304946
 OpenBabel01062421073D

 24 23  0  0  0  0  0  0  0  0999 V2000
   -0.0162    1.3436    0.0094 N   0  0  0  0  0  0  0  0  0  0  0  0
    0.0021   -0.0041    0.0020 C   0  0  0  0  0  0  0  0  0  0  0  0
    1.0605   -0.5961   -0.0113 O   0  0  0  0  0  0  0  0  0  0  0  0
   -1.2926   -0.7753    0.0102 C   0  0  0  0  0  0  0  0  0  0  0  0
   -0.9927   -2.2755   -0.0007 C   0  0  0  0  0  0  0  0  0  0  0  0
   -2.3072   -3.0585    0.0077 C   0  0  0  0  0  0  0  0  0  0  0  0
   -2.0117   -4.5362   -0.0031 C   0  0  0  0  0  0  0  0  0  0  0  0
   -0.8630   -4.9249   -0.0161 O   0  0  0  0  0  0  0  0  0  0  0  0
   -3.0241   -5.4259    0.0018 N   0  0  0  0  0  0  0  0  0  0  0  0
   -2.7369   -6.8624   -0.0087 C   0  0  0  0  0  0  0  0  0  0  0  0
   -4.0316   -7.6336   -0.0004 C   0  0  0  0  0  0  0  0  0  0  0  0
   -5.0956   -7.0384    0.0129 O   0  5  0  0  0  0  0  0  0  0  0  0
   -4.0151   -8.8527   -0.0071 O   0  0  0  0  0  0  0  0  0  0  0  0
    0.8172    1.8399    0.0041 H   0  0  0  0  0  0  0  0  0  0  0  0
   -0.8627    1.8171    0.0160 H   0  0  0  0  0  0  0  0  0  0  0  0
   -1.8592   -0.5245    0.9070 H   0  0  0  0  0  0  0  0  0  0  0  0
   -1.8762   -0.5150   -0.8728 H   0  0  0  0  0  0  0  0  0  0  0  0
   -0.4261   -2.5263   -0.8975 H   0  0  0  0  0  0  0  0  0  0  0  0
   -0.4091   -2.5358    0.8824 H   0  0  0  0  0  0  0  0  0  0  0  0
   -2.8737   -2.8077    0.9045 H   0  0  0  0  0  0  0  0  0  0  0  0
   -2.8907   -2.7982   -0.8754 H   0  0  0  0  0  0  0  0  0  0  0  0
   -3.9429   -5.1150    0.0122 H   0  0  0  0  0  0  0  0  0  0  0  0
   -2.1704   -7.1131   -0.9055 H   0  0  0  0  0  0  0  0  0  0  0  0
   -2.1534   -7.1227    0.8744 H   0  0  0  0  0  0  0  0  0  0  0  0
  1  2  1  0  0  0  0
  1 14  1  0  0  0  0
  1 15  1  0  0  0  0
  2  3  2  0  0  0  0
  2  4  1  0  0  0  0
  4  5  1  0  0  0  0
  4 16  1  0  0  0  0
  4 17  1  0  0  0  0
  5  6  1  0  0  0  0
  5 18  1  0  0  0  0
  5 19  1  0  0  0  0
  6  7  1  0  0  0  0
  6 20  1  0  0  0  0
  6 21  1  0  0  0  0
  7  8  2  0  0  0  0
  7  9  1  0  0  0  0
  9 10  1  0  0  0  0
  9 22  1  0  0  0  0
 10 11  1  0  0  0  0
 10 23  1  0  0  0  0
 10 24  1  0  0  0  0
 11 12  1  0  0  0  0
 11 13  2  0  0  0  0
M  CHG  1  12  -1
M  END
$$$$
ZINC000708749440
 OpenBabel01062421073D

 24 24  0  0  1  0  0  0  0  0999 V2000
   -0.0178    1.4588    0.0101 N   0  0  0  0  0  0  0  0  0  0  0  0
    0.0021   -0.0041    0.0020 O   0  0  0  0  0  0  0  0  0  0  0  0
    0.7493   -0.5811    1.0747 C   0  0  0  0  0  0  0  0  0  0  0  0
    0.7023   -2.0836    0.9684 C   0  0  0  0  0  0  0  0  0  0  0  0
    0.0892   -2.6086    0.0631 O   0  0  0  0  0  0  0  0  0  0  0  0
    1.3415   -2.8440    1.8793 N   0  0  0  0  0  0  0  0  0  0  0  0
    2.1149   -2.3398    3.0286 C   0  0  0  0  0  0  0  0  0  0  0  0
    2.1002   -3.4993    4.0558 C   0  0  0  0  0  0  0  0  0  0  0  0
    2.2024   -4.7387    3.1280 C   0  0  0  0  0  0  0  0  0  0  0  0
    1.3777   -4.3137    1.8949 C   0  0  2  0  0  0  0  0  0  0  0  0
    0.3665   -4.7135    1.9694 H   0  0  0  0  0  0  0  0  0  0  0  0
    2.0373   -4.8197    0.6379 C   0  0  0  0  0  0  0  0  0  0  0  0
    1.7449   -5.9176    0.1956 O   0  5  0  0  0  0  0  0  0  0  0  0
    2.8634   -4.1313    0.0634 O   0  0  0  0  0  0  0  0  0  0  0  0
    0.9192    1.8332    0.0031 H   0  0  0  0  0  0  0  0  0  0  0  0
   -0.5562    1.8174   -0.7643 H   0  0  0  0  0  0  0  0  0  0  0  0
    1.7847   -0.2451    1.0182 H   0  0  0  0  0  0  0  0  0  0  0  0
    0.3179   -0.2705    2.0263 H   0  0  0  0  0  0  0  0  0  0  0  0
    3.1376   -2.1128    2.7275 H   0  0  0  0  0  0  0  0  0  0  0  0
    1.6369   -1.4549    3.4487 H   0  0  0  0  0  0  0  0  0  0  0  0
    2.9589   -3.4399    4.7244 H   0  0  0  0  0  0  0  0  0  0  0  0
    1.1676   -3.5096    4.6201 H   0  0  0  0  0  0  0  0  0  0  0  0
    3.2399   -4.9315    2.8549 H   0  0  0  0  0  0  0  0  0  0  0  0
    1.7586   -5.6137    3.6029 H   0  0  0  0  0  0  0  0  0  0  0  0
  1  2  1  0  0  0  0
  1 15  1  0  0  0  0
  1 16  1  0  0  0  0
  2  3  1  0  0  0  0
  3  4  1  0  0  0  0
  3 17  1  0  0  0  0
  3 18  1  0  0  0  0
  4  5  2  0  0  0  0
  4  6  1  0  0  0  0
  6 10  1  0  0  0  0
  6  7  1  0  0  0  0
  7  8  1  0  0  0  0
  7 19  1  0  0  0  0
  7 20  1  0  0  0  0
  8  9  1  0  0  0  0
  8 21  1  0  0  0  0
  8 22  1  0  0  0  0
  9 10  1  0  0  0  0
  9 23  1  0  0  0  0
  9 24  1  0  0  0  0
 10 11  1  1  0  0  0
 10 12  1  0  0  0  0
 12 13  1  0  0  0  0
 12 14  2  0  0  0  0
M  CHG  1  13  -1
M  END
$$$$
ZINC000082258758
 OpenBabel01062421073D

 20 20  0  0  0  0  0  0  0  0999 V2000
   -0.0178    1.4608    0.0101 C   0  0  0  0  0  0  0  0  0  0  0  0
    0.0021   -0.0041    0.0020 N   0  0  0  0  0  0  0  0  0  0  0  0
    0.0081   -0.8018   -1.0848 C   0  0  0  0  0  0  0  0  0  0  0  0
    0.0284   -2.0897   -0.6302 C   0  0  0  0  0  0  0  0  0  0  0  0
    0.0415   -3.3012   -1.4719 C   0  0  0  0  0  0  0  0  0  0  0  0
    0.0342   -3.1997   -2.6836 O   0  0  0  0  0  0  0  0  0  0  0  0
    0.0614   -4.5204   -0.8978 N   0  0  0  0  0  0  0  0  0  0  0  0
    0.0744   -5.7235   -1.7337 C   0  0  0  0  0  0  0  0  0  0  0  0
    0.0958   -6.9465   -0.8535 C   0  0  0  0  0  0  0  0  0  0  0  0
    0.1000   -6.8245    0.3596 O   0  5  0  0  0  0  0  0  0  0  0  0
    0.1091   -8.0580   -1.3545 O   0  0  0  0  0  0  0  0  0  0  0  0
    0.0346   -2.0666    0.7136 N   0  0  0  0  0  0  0  0  0  0  0  0
    0.0246   -0.8459    1.1231 N   0  0  0  0  0  0  0  0  0  0  0  0
    1.0048    1.8381    0.0023 H   0  0  0  0  0  0  0  0  0  0  0  0
   -0.5450    1.8219   -0.8730 H   0  0  0  0  0  0  0  0  0  0  0  0
   -0.5280    1.8123    0.9069 H   0  0  0  0  0  0  0  0  0  0  0  0
   -0.0019   -0.4836   -2.1168 H   0  0  0  0  0  0  0  0  0  0  0  0
    0.0672   -4.6013    0.0688 H   0  0  0  0  0  0  0  0  0  0  0  0
   -0.8185   -5.7413   -2.3587 H   0  0  0  0  0  0  0  0  0  0  0  0
    0.9613   -5.7162   -2.3673 H   0  0  0  0  0  0  0  0  0  0  0  0
  1  2  1  0  0  0  0
  1 14  1  0  0  0  0
  1 15  1  0  0  0  0
  1 16  1  0  0  0  0
  2 13  1  0  0  0  0
  2  3  1  0  0  0  0
  3  4  2  0  0  0  0
  3 17  1  0  0  0  0
  4  5  1  0  0  0  0
  4 12  1  0  0  0  0
  5  6  2  0  0  0  0
  5  7  1  0  0  0  0
  7  8  1  0  0  0  0
  7 18  1  0  0  0  0
  8  9  1  0  0  0  0
  8 19  1  0  0  0  0
  8 20  1  0  0  0  0
  9 10  1  0  0  0  0
  9 11  2  0  0  0  0
 12 13  2  0  0  0  0
M  CHG  1  10  -1
M  END
$$$$
ZINC000082258770
 OpenBabel01062421073D

 23 23  0  0  0  0  0  0  0  0999 V2000
   -0.0641    1.4612    0.0117 C   0  0  0  0  0  0  0  0  0  0  0  0
   -0.0169   -0.0030    0.0030 N   0  0  0  0  0  0  0  0  0  0  0  0
    0.1223   -0.7390    1.2620 C   0  0  0  0  0  0  0  0  0  0  0  0
   -1.2441   -1.0377    1.8230 C   0  0  0  0  0  0  0  0  0  0  0  0
   -2.2418   -0.6699    1.2264 O   0  5  0  0  0  0  0  0  0  0  0  0
   -1.3520   -1.6471    2.8735 O   0  0  0  0  0  0  0  0  0  0  0  0
   -0.1016   -0.6730   -1.1634 C   0  0  0  0  0  0  0  0  0  0  0  0
   -0.1595   -1.8876   -1.1641 O   0  0  0  0  0  0  0  0  0  0  0  0
   -0.1240    0.0672   -2.4393 C   0  0  0  0  0  0  0  0  0  0  0  0
   -0.3262   -0.4781   -3.6753 C   0  0  0  0  0  0  0  0  0  0  0  0
   -0.2710    0.5351   -4.5629 N   0  0  0  0  0  0  0  0  0  0  0  0
   -0.4317    0.4334   -6.0155 C   0  0  0  0  0  0  0  0  0  0  0  0
   -0.0302    1.7050   -3.8285 N   0  0  0  0  0  0  0  0  0  0  0  0
    0.0453    1.3929   -2.5816 N   0  0  0  0  0  0  0  0  0  0  0  0
    0.9342    1.8580   -0.1728 H   0  0  0  0  0  0  0  0  0  0  0  0
   -0.7426    1.8075   -0.7679 H   0  0  0  0  0  0  0  0  0  0  0  0
   -0.4191    1.8075    0.9824 H   0  0  0  0  0  0  0  0  0  0  0  0
    0.6525   -1.6737    1.0798 H   0  0  0  0  0  0  0  0  0  0  0  0
    0.6840   -0.1357    1.9753 H   0  0  0  0  0  0  0  0  0  0  0  0
   -0.4974   -1.5208   -3.8986 H   0  0  0  0  0  0  0  0  0  0  0  0
   -1.4839    0.5525   -6.2739 H   0  0  0  0  0  0  0  0  0  0  0  0
    0.1525    1.2149   -6.5013 H   0  0  0  0  0  0  0  0  0  0  0  0
   -0.0833   -0.5431   -6.3521 H   0  0  0  0  0  0  0  0  0  0  0  0
  1  2  1  0  0  0  0
  1 15  1  0  0  0  0
  1 16  1  0  0  0  0
  1 17  1  0  0  0  0
  2  3  1  0  0  0  0
  2  7  1  0  0  0  0
  3  4  1  0  0  0  0
  3 18  1  0  0  0  0
  3 19  1  0  0  0  0
  4  5  1  0  0  0  0
  4  6  2  0  0  0  0
  7  8  2  0  0  0  0
  7  9  1  0  0  0  0
  9 14  1  0  0  0  0
  9 10  2  0  0  0  0
 10 11  1  0  0  0  0
 10 20  1  0  0  0  0
 11 12  1  0  0  0  0
 11 13  1  0  0  0  0
 12 21  1  0  0  0  0
 12 22  1  0  0  0  0
 12 23  1  0  0  0  0
 13 14  2  0  0  0  0
M  CHG  1   5  -1
M  END
