@<TRIPOS>MOLECULE
ZINC001339103226
23    23    1     0     0
SMALL
USER_CHARGES
@<TRIPOS>ATOM
1      C1     -0.0178    1.4608    0.0101 C.3      1 ZINC001339103226    0.0900
2      N2      0.0021   -0.0041    0.0020 N.am     1 ZINC001339103226   -0.5900
3      C3      0.0241   -0.7433    1.2666 C.3      1 ZINC001339103226    0.0500
4      C4     -1.3889   -1.0161    1.7137 C.2      1 ZINC001339103226    0.4800
5      O5     -2.3274   -0.6289    1.0386 O.co2    1 ZINC001339103226   -0.6900
6      O6     -1.5937   -1.6240    2.7506 O.co2    1 ZINC001339103226   -0.7000
7      C7      0.0001   -0.6716   -1.1688 C.2      1 ZINC001339103226    0.5200
8      O8      0.0165   -1.8843   -1.1755 O.2      1 ZINC001339103226   -0.5200
9      C9     -0.0226    0.0888   -2.4697 C.3      1 ZINC001339103226   -0.0500
10     C10    -0.0203   -0.8842   -3.6205 C.2      1 ZINC001339103226    0.2000
11     N11     0.8487   -1.8360   -3.8269 N.2      1 ZINC001339103226   -0.2600
12     N12     0.5456   -2.4731   -4.9021 N.2      1 ZINC001339103226   -0.3000
13     C13    -0.5304   -1.9568   -5.4303 C.2      1 ZINC001339103226    0.1500
14     N14    -0.9232   -0.9370   -4.6293 N.pl3    1 ZINC001339103226   -0.5800
15     H15     1.0048    1.8381    0.0023 H        1 ZINC001339103226    0.0500
16     H16    -0.5450    1.8219   -0.8730 H        1 ZINC001339103226    0.0600
17     H17    -0.5280    1.8123    0.9069 H        1 ZINC001339103226    0.0700
18     H18     0.5496   -1.6879    1.1262 H        1 ZINC001339103226    0.0800
19     H19     0.5371   -0.1514    2.0246 H        1 ZINC001339103226    0.0700
20     H20    -0.9215    0.7036   -2.5156 H        1 ZINC001339103226    0.1100
21     H21     0.8582    0.7278   -2.5324 H        1 ZINC001339103226    0.1200
22     H22    -1.0195   -2.2844   -6.3358 H        1 ZINC001339103226    0.2200
23     H23    -1.6915   -0.3585   -4.7556 H        1 ZINC001339103226    0.4300
@<TRIPOS>BOND
1     1     2     1
2     1     15    1
3     1     16    1
4     1     17    1
5     2     3     1
6     2     7     am
7     3     4     1
8     3     18    1
9     3     19    1
10    4     5     ar
11    4     6     ar
12    7     8     2
13    7     9     1
14    9     10    1
15    9     20    1
16    9     21    1
17    10    14    1
18    10    11    2
19    11    12    1
20    12    13    2
21    13    14    1
22    13    22    1
23    14    23    1
@<TRIPOS>SUBSTRUCTURE
1   ZINC001339103226 1     RESIDUE    1   A     ZIN   1
@<TRIPOS>MOLECULE
ZINC000146725979
24    25    1     0     0
SMALL
USER_CHARGES
@<TRIPOS>ATOM
1      O1     -3.4916    2.3340    3.8911 O.2      1 ZINC000146725979   -0.6600
2      C2     -2.9604    3.1755    3.1885 C.2      1 ZINC000146725979    0.5700
3      N3     -2.6840    3.0590    1.8741 N.pl3    1 ZINC000146725979   -0.6800
4      C4     -2.0863    4.2221    1.4536 C.2      1 ZINC000146725979    0.1900
5      C5     -1.6172    4.5093    0.0506 C.3      1 ZINC000146725979    0.1500
6      N6     -0.9128    5.7982    0.0241 N.3      1 ZINC000146725979   -0.5200
7      C7      0.2417    5.7865    0.9342 C.3      1 ZINC000146725979    0.0000
8      C8      0.9797    7.1239    0.8309 C.3      1 ZINC000146725979    0.0700
9      O9      0.0703    8.1882    1.1235 O.3      1 ZINC000146725979   -0.3900
10     C10    -1.0657    8.2298    0.2558 C.3      1 ZINC000146725979    0.0700
11     C11    -1.8244    6.9036    0.3532 C.3      1 ZINC000146725979    0.0000
12     N12    -1.9925    5.0308    2.4594 N.2      1 ZINC000146725979   -0.3900
13     N13    -2.5456    4.3981    3.5812 N.am     1 ZINC000146725979   -0.5900
14     H14    -0.9410    3.7190   -0.2754 H        1 ZINC000146725979    0.0900
15     H15    -2.4766    4.5511   -0.6185 H        1 ZINC000146725979    0.0900
16     H16    -0.1031    5.6391    1.9576 H        1 ZINC000146725979    0.0800
17     H17     0.9159    4.9763    0.6564 H        1 ZINC000146725979    0.0700
18     H18     1.8027    7.1415    1.5453 H        1 ZINC000146725979    0.0900
19     H19     1.3708    7.2467   -0.1791 H        1 ZINC000146725979    0.0500
20     H20    -1.7220    9.0473    0.5542 H        1 ZINC000146725979    0.0900
21     H21    -0.7340    8.3848   -0.7709 H        1 ZINC000146725979    0.0500
22     H22    -2.6583    6.9089   -0.3487 H        1 ZINC000146725979    0.0700
23     H23    -2.2022    6.7741    1.3674 H        1 ZINC000146725979    0.0800
24     H24    -2.6121    4.7680    4.4754 H        1 ZINC000146725979    0.4000
@<TRIPOS>BOND
1     1     2     2
2     2     13    am
3     2     3     1
4     3     4     1
5     4     5     1
6     4     12    2
7     5     6     1
8     5     14    1
9     5     15    1
10    6     11    1
11    6     7     1
12    7     8     1
13    7     16    1
14    7     17    1
15    8     9     1
16    8     18    1
17    8     19    1
18    9     10    1
19    10    11    1
20    10    20    1
21    10    21    1
22    11    22    1
23    11    23    1
24    12    13    1
25    13    24    1
@<TRIPOS>SUBSTRUCTURE
1   ZINC000146725979 1     RESIDUE    1   A     ZIN   1
@<TRIPOS>MOLECULE
ZINC000308473763
26    25    1     0     0
SMALL
USER_CHARGES
@<TRIPOS>ATOM
1      C1     -0.0178    1.4608    0.0101 C.3      1 ZINC000308473763    0.0900
2      N2      0.0021   -0.0041    0.0020 N.am     1 ZINC000308473763   -0.7300
3      C3     -1.1558   -0.6938    0.0094 C.2      1 ZINC000308473763    0.5300
4      O4     -2.2148   -0.1014    0.0227 O.2      1 ZINC000308473763   -0.5400
5      C5     -1.1356   -2.1881    0.0012 C.2      1 ZINC000308473763    0.3800
6      O6     -0.0766   -2.7805   -0.0121 O.2      1 ZINC000308473763   -0.6700
7      N7     -2.2935   -2.8778    0.0085 N.pl3    1 ZINC000308473763   -0.5400
8      O8     -2.2743   -4.2937    0.0007 O.3      1 ZINC000308473763   -0.2500
9      C9     -3.5716   -4.8926    0.0099 C.3      1 ZINC000308473763    0.0700
10     C10    -3.4302   -6.4160    0.0004 C.3      1 ZINC000308473763    0.1300
11     C11    -2.6530   -6.8638    1.2398 C.3      1 ZINC000308473763   -0.1300
12     C12    -4.8193   -7.0573    0.0102 C.3      1 ZINC000308473763   -0.1700
13     O13    -2.7265   -6.8217   -1.1754 O.3      1 ZINC000308473763   -0.5500
14     H14     1.0048    1.8381    0.0023 H        1 ZINC000308473763    0.0700
15     H15    -0.5450    1.8219   -0.8730 H        1 ZINC000308473763    0.0500
16     H16    -0.5280    1.8123    0.9069 H        1 ZINC000308473763    0.0500
17     H17     0.8486   -0.4776   -0.0086 H        1 ZINC000308473763    0.4100
18     H18    -4.1084   -4.5831    0.9067 H        1 ZINC000308473763    0.0400
19     H19    -4.1253   -4.5736   -0.8731 H        1 ZINC000308473763    0.0300
20     H20    -3.1897   -6.5543    2.1367 H        1 ZINC000308473763    0.0600
21     H21    -2.5522   -7.9491    1.2331 H        1 ZINC000308473763    0.0500
22     H22    -1.6633   -6.4069    1.2328 H        1 ZINC000308473763    0.0700
23     H23    -5.3730   -6.7383   -0.8729 H        1 ZINC000308473763    0.0600
24     H24    -4.7185   -8.1426    0.0034 H        1 ZINC000308473763    0.0600
25     H25    -5.3560   -6.7478    0.9070 H        1 ZINC000308473763    0.0600
26     H26    -3.1626   -6.5705   -2.0011 H        1 ZINC000308473763    0.3700
@<TRIPOS>BOND
1     1     2     1
2     1     14    1
3     1     15    1
4     1     16    1
5     2     3     am
6     2     17    1
7     3     4     2
8     3     5     1
9     5     6     2
10    5     7     1
11    7     8     1
12    8     9     1
13    9     10    1
14    9     18    1
15    9     19    1
16    10    11    1
17    10    12    1
18    10    13    1
19    11    20    1
20    11    21    1
21    11    22    1
22    12    23    1
23    12    24    1
24    12    25    1
25    13    26    1
@<TRIPOS>SUBSTRUCTURE
1   ZINC000308473763 1     RESIDUE    1   A     ZIN   1
@<TRIPOS>MOLECULE
ZINC000163775600
25    24    1     0     0
SMALL
USER_CHARGES
@<TRIPOS>ATOM
1      C1     -0.0173    1.4248    0.0099 C.3      1 ZINC000163775600    0.0300
2      O2      0.0021   -0.0041    0.0020 O.3      1 ZINC000163775600   -0.3600
3      C3     -1.2953   -0.6030    0.0112 C.3      1 ZINC000163775600    0.0700
4      H4     -1.9932    0.0500    0.5352 H        1 ZINC000163775600    0.0800
5      C5     -1.7721   -0.8090   -1.4279 C.3      1 ZINC000163775600   -0.1700
6      C6     -1.2290   -1.9345    0.7139 C.2      1 ZINC000163775600    0.5100
7      O7     -0.1745   -2.3315    1.1626 O.2      1 ZINC000163775600   -0.5300
8      N8     -2.3414   -2.6842    0.8436 N.am     1 ZINC000163775600   -0.6900
9      C9     -2.2769   -3.9786    1.5267 C.3      1 ZINC000163775600    0.0700
10     H10    -1.5558   -3.9235    2.3422 H        1 ZINC000163775600    0.0900
11     C11    -3.6565   -4.3281    2.0885 C.3      1 ZINC000163775600    0.0900
12     O12    -4.5763   -4.5147    1.0109 O.3      1 ZINC000163775600   -0.5500
13     C13    -1.8488   -5.0420    0.5485 C.2      1 ZINC000163775600    0.5000
14     O14    -1.2193   -6.0108    0.9380 O.co2    1 ZINC000163775600   -0.7000
15     O15    -2.1318   -4.9336   -0.6325 O.co2    1 ZINC000163775600   -0.6800
16     H16     1.0053    1.8021    0.0021 H        1 ZINC000163775600    0.0900
17     H17    -0.5445    1.7859   -0.8732 H        1 ZINC000163775600    0.0400
18     H18    -0.5275    1.7763    0.9067 H        1 ZINC000163775600    0.0400
19     H19    -1.0742   -1.4620   -1.9520 H        1 ZINC000163775600    0.0700
20     H20    -2.7617   -1.2659   -1.4210 H        1 ZINC000163775600    0.0800
21     H21    -1.8201    0.1541   -1.9362 H        1 ZINC000163775600    0.0600
22     H22    -3.1848   -2.3667    0.4847 H        1 ZINC000163775600    0.4000
23     H23    -3.5892   -5.2463    2.6719 H        1 ZINC000163775600    0.0600
24     H24    -4.0049   -3.5165    2.7272 H        1 ZINC000163775600    0.0400
25     H25    -5.4733   -4.7393    1.2939 H        1 ZINC000163775600    0.3600
@<TRIPOS>BOND
1     1     2     1
2     1     16    1
3     1     17    1
4     1     18    1
5     2     3     1
6     3     4     1
7     3     5     1
8     3     6     1
9     5     19    1
10    5     20    1
11    5     21    1
12    6     7     2
13    6     8     am
14    8     9     1
15    8     22    1
16    9     10    1
17    9     11    1
18    9     13    1
19    11    12    1
20    11    23    1
21    11    24    1
22    12    25    1
23    13    14    ar
24    13    15    ar
