ZINC000006452351
 OpenBabel11022112223D

 15 15  0  0  0  0  0  0  0  0999 V2000
    0.0021   -0.0041    0.0020 C   0  0  0  0  0  0  0  0  0  0  0  0
   -0.0178    1.4608    0.0101 N   0  0  0  0  0  0  0  0  0  0  0  0
    1.1401    2.1505    0.0027 C   0  0  0  0  0  0  0  0  0  0  0  0
    2.2012    1.5569   -0.0106 O   0  0  0  0  0  0  0  0  0  0  0  0
    1.1218    3.4981    0.0101 N   0  0  0  0  0  0  0  0  0  0  0  0
    2.3249    4.2147    0.0025 C   0  0  0  0  0  0  0  0  0  0  0  0
    3.5481    3.7051   -0.0061 N   0  0  0  0  0  0  0  0  0  0  0  0
    4.3805    4.6898   -0.0146 N   0  0  0  0  0  0  0  0  0  0  0  0
    3.7216    5.7960   -0.0024 N   0  0  0  0  0  0  0  0  0  0  0  0
    2.4594    5.5330    0.0083 N   0  0  0  0  0  0  0  0  0  0  0  0
   -1.0205   -0.3814    0.0098 H   0  0  0  0  0  0  0  0  0  0  0  0
    0.5123   -0.3556   -0.8948 H   0  0  0  0  0  0  0  0  0  0  0  0
    0.5293   -0.3651    0.8851 H   0  0  0  0  0  0  0  0  0  0  0  0
   -0.8643    1.9343    0.0167 H   0  0  0  0  0  0  0  0  0  0  0  0
    0.2753    3.9716    0.0208 H   0  0  0  0  0  0  0  0  0  0  0  0
  1  2  1  0  0  0  0
  1 11  1  0  0  0  0
  1 12  1  0  0  0  0
  1 13  1  0  0  0  0
  2  3  1  0  0  0  0
  2 14  1  0  0  0  0
  3  4  2  0  0  0  0
  3  5  1  0  0  0  0
  5  6  1  0  0  0  0
  5 15  1  0  0  0  0
  6 10  1  0  0  0  0
  6  7  2  0  0  0  0
  7  8  1  0  0  0  0
  8  9  1  0  0  0  0
  9 10  2  0  0  0  0
M  END
$$$$
ZINC000002034481
 OpenBabel11022112223D

 18 19  0  0  0  0  0  0  0  0999 V2000
   -0.0178    1.4608    0.0101 C   0  0  0  0  0  0  0  0  0  0  0  0
    0.0021   -0.0041    0.0020 N   0  0  0  0  0  0  0  0  0  0  0  0
   -1.1820   -0.7055    0.0039 C   0  0  0  0  0  0  0  0  0  0  0  0
   -1.1499   -2.0729   -0.0037 C   0  0  0  0  0  0  0  0  0  0  0  0
   -2.4765   -2.5166    0.0007 N   0  0  0  0  0  0  0  0  0  0  0  0
   -3.2709   -1.4272    0.0107 C   0  0  0  0  0  0  0  0  0  0  0  0
   -4.4880   -1.4393    0.0175 O   0  0  0  0  0  0  0  0  0  0  0  0
   -2.4992   -0.3237    0.0127 N   0  0  0  0  0  0  0  0  0  0  0  0
    0.0952   -2.7332   -0.0133 C   0  0  0  0  0  0  0  0  0  0  0  0
    0.1467   -3.9507   -0.0205 O   0  0  0  0  0  0  0  0  0  0  0  0
    1.2295   -2.0027   -0.0147 N   0  0  0  0  0  0  0  0  0  0  0  0
    1.1785   -0.6585   -0.0127 C   0  0  0  0  0  0  0  0  0  0  0  0
    2.2149   -0.0223   -0.0145 O   0  0  0  0  0  0  0  0  0  0  0  0
    1.0048    1.8381    0.0023 H   0  0  0  0  0  0  0  0  0  0  0  0
   -0.5450    1.8219   -0.8730 H   0  0  0  0  0  0  0  0  0  0  0  0
   -0.5280    1.8123    0.9069 H   0  0  0  0  0  0  0  0  0  0  0  0
   -2.8219    0.5911    0.0193 H   0  0  0  0  0  0  0  0  0  0  0  0
    2.0897   -2.4510   -0.0210 H   0  0  0  0  0  0  0  0  0  0  0  0
  1  2  1  0  0  0  0
  1 14  1  0  0  0  0
  1 15  1  0  0  0  0
  1 16  1  0  0  0  0
  2 12  1  0  0  0  0
  2  3  1  0  0  0  0
  3  8  1  0  0  0  0
  3  4  2  0  0  0  0
  4  5  1  0  0  0  0
  4  9  1  0  0  0  0
  5  6  1  0  0  0  0
  6  7  2  0  0  0  0
  6  8  1  0  0  0  0
  8 17  1  0  0  0  0
  9 10  2  0  0  0  0
  9 11  1  0  0  0  0
 11 12  1  0  0  0  0
 11 18  1  0  0  0  0
 12 13  2  0  0  0  0
M  END
$$$$
ZINC000014982064
 OpenBabel11022112223D

 17 17  0  0  0  0  0  0  0  0999 V2000
   -0.0110    1.3606    0.0257 N   0  0  0  0  0  0  0  0  0  0  0  0
    0.0023   -0.0136    0.0132 C   0  0  0  0  0  0  0  0  0  0  0  0
   -1.1812   -0.7231    0.0069 C   0  0  0  0  0  0  0  0  0  0  0  0
   -2.4213   -0.0501    0.0131 N   0  0  0  0  0  0  0  0  0  0  0  0
   -3.2970   -0.2397   -0.9958 C   0  0  0  0  0  0  0  0  0  0  0  0
   -3.0557   -1.0523   -1.8639 O   0  0  0  0  0  0  0  0  0  0  0  0
   -1.1301   -2.1296   -0.0064 C   0  0  0  0  0  0  0  0  0  0  0  0
   -2.1608   -2.7812   -0.0127 O   0  0  0  0  0  0  0  0  0  0  0  0
    0.0653   -2.7512   -0.0127 N   0  0  0  0  0  0  0  0  0  0  0  0
    1.2086   -2.0432   -0.0064 C   0  0  0  0  0  0  0  0  0  0  0  0
    2.2738   -2.6297   -0.0127 O   0  0  0  0  0  0  0  0  0  0  0  0
    1.1955   -0.6979    0.0010 N   0  0  0  0  0  0  0  0  0  0  0  0
    0.8243    1.8537    0.0260 H   0  0  0  0  0  0  0  0  0  0  0  0
   -0.8557    1.8375    0.0302 H   0  0  0  0  0  0  0  0  0  0  0  0
   -2.6444    0.5489    0.7428 H   0  0  0  0  0  0  0  0  0  0  0  0
   -4.2127    0.3318   -1.0307 H   0  0  0  0  0  0  0  0  0  0  0  0
    2.0324   -0.2077    0.0052 H   0  0  0  0  0  0  0  0  0  0  0  0
  1  2  1  0  0  0  0
  1 13  1  0  0  0  0
  1 14  1  0  0  0  0
  2 12  1  0  0  0  0
  2  3  2  0  0  0  0
  3  4  1  0  0  0  0
  3  7  1  0  0  0  0
  4  5  1  0  0  0  0
  4 15  1  0  0  0  0
  5  6  2  0  0  0  0
  5 16  1  0  0  0  0
  7  8  2  0  0  0  0
  7  9  1  0  0  0  0
  9 10  1  0  0  0  0
 10 11  2  0  0  0  0
 10 12  1  0  0  0  0
 12 17  1  0  0  0  0
M  END
$$$$
ZINC000000402066
 OpenBabel11022112223D

 19 20  0  0  0  0  0  0  0  0999 V2000
   -0.0178    1.4608    0.0101 C   0  0  0  0  0  0  0  0  0  0  0  0
    0.0021   -0.0041    0.0020 N   0  0  0  0  0  0  0  0  0  0  0  0
    0.0055   -0.6597   -1.1701 C   0  0  0  0  0  0  0  0  0  0  0  0
   -0.0081   -0.0151   -2.2010 O   0  0  0  0  0  0  0  0  0  0  0  0
    0.0238   -2.0004   -1.2467 N   0  0  0  0  0  0  0  0  0  0  0  0
    0.0393   -2.7577   -0.1290 C   0  0  0  0  0  0  0  0  0  0  0  0
    0.0559   -3.9720   -0.2005 O   0  0  0  0  0  0  0  0  0  0  0  0
    0.0363   -2.0808    1.1773 C   0  0  0  0  0  0  0  0  0  0  0  0
    0.0229   -0.6937    1.2041 C   0  0  0  0  0  0  0  0  0  0  0  0
    0.0191   -0.0315    2.3654 N   0  0  0  0  0  0  0  0  0  0  0  0
    0.0284   -0.6712    3.5056 C   0  0  0  0  0  0  0  0  0  0  0  0
    0.0433   -2.1375    3.5218 C   0  0  0  0  0  0  0  0  0  0  0  0
    0.0521   -2.7461    4.5775 O   0  0  0  0  0  0  0  0  0  0  0  0
    0.0512   -2.8020    2.3439 N   0  0  0  0  0  0  0  0  0  0  0  0
    1.0048    1.8381    0.0023 H   0  0  0  0  0  0  0  0  0  0  0  0
   -0.5450    1.8219   -0.8730 H   0  0  0  0  0  0  0  0  0  0  0  0
   -0.5280    1.8123    0.9069 H   0  0  0  0  0  0  0  0  0  0  0  0
    0.0255   -2.4303   -2.1162 H   0  0  0  0  0  0  0  0  0  0  0  0
    0.0256   -0.1204    4.4346 H   0  0  0  0  0  0  0  0  0  0  0  0
  1  2  1  0  0  0  0
  1 15  1  0  0  0  0
  1 16  1  0  0  0  0
  1 17  1  0  0  0  0
  2  9  1  0  0  0  0
  2  3  1  0  0  0  0
  3  4  2  0  0  0  0
  3  5  1  0  0  0  0
  5  6  1  0  0  0  0
  5 18  1  0  0  0  0
  6  7  2  0  0  0  0
  6  8  1  0  0  0  0
  8 14  1  0  0  0  0
  8  9  2  0  0  0  0
  9 10  1  0  0  0  0
 10 11  2  0  0  0  0
 11 12  1  0  0  0  0
 11 19  1  0  0  0  0
 12 13  2  0  0  0  0
 12 14  1  0  0  0  0
M  END
$$$$
ZINC000104101045
 OpenBabel11022112223D

 15 15  0  0  0  0  0  0  0  0999 V2000
   -0.0178    1.4608    0.0101 C   0  0  0  0  0  0  0  0  0  0  0  0
    0.0021   -0.0041    0.0020 N   0  0  0  0  0  0  0  0  0  0  0  0
    0.0055   -0.6665   -1.1717 C   0  0  0  0  0  0  0  0  0  0  0  0
   -0.0074   -0.0511   -2.2237 O   0  0  0  0  0  0  0  0  0  0  0  0
    0.0246   -2.0726   -1.1743 C   0  0  0  0  0  0  0  0  0  0  0  0
    0.0393   -2.7371    0.0160 C   0  0  0  0  0  0  0  0  0  0  0  0
    0.0582   -4.0866    0.0415 O   0  0  0  0  0  0  0  0  0  0  0  0
    0.0351   -2.0235    1.1877 N   0  0  0  0  0  0  0  0  0  0  0  0
    0.0223   -0.6781    1.1664 C   0  0  0  0  0  0  0  0  0  0  0  0
    0.0192   -0.0625    2.2149 O   0  0  0  0  0  0  0  0  0  0  0  0
    1.0048    1.8381    0.0023 H   0  0  0  0  0  0  0  0  0  0  0  0
   -0.5450    1.8219   -0.8730 H   0  0  0  0  0  0  0  0  0  0  0  0
   -0.5280    1.8123    0.9069 H   0  0  0  0  0  0  0  0  0  0  0  0
    0.0273   -2.6185   -2.1062 H   0  0  0  0  0  0  0  0  0  0  0  0
    0.0455   -2.4918    2.0371 H   0  0  0  0  0  0  0  0  0  0  0  0
  1  2  1  0  0  0  0
  1 11  1  0  0  0  0
  1 12  1  0  0  0  0
  1 13  1  0  0  0  0
  2  9  1  0  0  0  0
  2  3  1  0  0  0  0
  3  4  2  0  0  0  0
  3  5  1  0  0  0  0
  5  6  2  0  0  0  0
  5 14  1  0  0  0  0
  6  7  1  0  0  0  0
  6  8  1  0  0  0  0
  8  9  1  0  0  0  0
  8 15  1  0  0  0  0
  9 10  2  0  0  0  0
M  END
$$$$
ZINC000002584392
 OpenBabel11022112223D

 21 22  0  0  0  0  0  0  0  0999 V2000
   -0.0178    1.4608    0.0101 C   0  0  0  0  0  0  0  0  0  0  0  0
    0.0021   -0.0041    0.0020 N   0  0  0  0  0  0  0  0  0  0  0  0
    0.0081   -0.7819   -1.0972 C   0  0  0  0  0  0  0  0  0  0  0  0
   -0.0024   -0.3821   -2.2468 O   0  0  0  0  0  0  0  0  0  0  0  0
    0.0278   -2.0756   -0.7176 N   0  0  0  0  0  0  0  0  0  0  0  0
    0.0342   -2.1061    0.6809 C   0  0  0  0  0  0  0  0  0  0  0  0
    0.0235   -0.8083    1.1127 C   0  0  0  0  0  0  0  0  0  0  0  0
    0.0270   -0.5480    2.4640 N   0  0  0  0  0  0  0  0  0  0  0  0
    0.0408   -1.5614    3.3503 C   0  0  0  0  0  0  0  0  0  0  0  0
    0.0436   -1.3127    4.5406 O   0  0  0  0  0  0  0  0  0  0  0  0
    0.0509   -2.8438    2.9441 N   0  0  0  0  0  0  0  0  0  0  0  0
    0.0648   -3.9198    3.9383 C   0  0  0  0  0  0  0  0  0  0  0  0
    0.0521   -3.1482    1.6298 C   0  0  0  0  0  0  0  0  0  0  0  0
    0.0614   -4.3115    1.2670 O   0  0  0  0  0  0  0  0  0  0  0  0
    1.0048    1.8381    0.0023 H   0  0  0  0  0  0  0  0  0  0  0  0
   -0.5450    1.8219   -0.8730 H   0  0  0  0  0  0  0  0  0  0  0  0
   -0.5280    1.8123    0.9069 H   0  0  0  0  0  0  0  0  0  0  0  0
    0.0198    0.3693    2.7793 H   0  0  0  0  0  0  0  0  0  0  0  0
    0.0648   -3.4893    4.9396 H   0  0  0  0  0  0  0  0  0  0  0  0
   -0.8200   -4.5435    3.8109 H   0  0  0  0  0  0  0  0  0  0  0  0
    0.9599   -4.5271    3.8039 H   0  0  0  0  0  0  0  0  0  0  0  0
  1  2  1  0  0  0  0
  1 15  1  0  0  0  0
  1 16  1  0  0  0  0
  1 17  1  0  0  0  0
  2  7  1  0  0  0  0
  2  3  1  0  0  0  0
  3  4  2  0  0  0  0
  3  5  1  0  0  0  0
  5  6  1  0  0  0  0
  6 13  1  0  0  0  0
  6  7  2  0  0  0  0
  7  8  1  0  0  0  0
  8  9  1  0  0  0  0
  8 18  1  0  0  0  0
  9 10  2  0  0  0  0
  9 11  1  0  0  0  0
 11 12  1  0  0  0  0
 11 13  1  0  0  0  0
 12 19  1  0  0  0  0
 12 20  1  0  0  0  0
 12 21  1  0  0  0  0
 13 14  2  0  0  0  0
M  END
$$$$
ZINC000253512448
 OpenBabel11022112223D

 19 20  0  0  1  0  0  0  0  0999 V2000
   -0.0178    1.4608    0.0101 C   0  0  0  0  0  0  0  0  0  0  0  0
    0.0021   -0.0041    0.0020 N   0  0  0  0  0  0  0  0  0  0  0  0
    0.0055   -0.6617   -1.1698 C   0  0  0  0  0  0  0  0  0  0  0  0
   -0.0078   -0.0156   -2.1995 O   0  0  0  0  0  0  0  0  0  0  0  0
    0.0233   -2.0013   -1.2523 N   0  0  0  0  0  0  0  0  0  0  0  0
    0.0390   -2.7702   -0.1418 C   0  0  0  0  0  0  0  0  0  0  0  0
    0.0555   -3.9832   -0.2231 O   0  0  0  0  0  0  0  0  0  0  0  0
    0.0361   -2.0995    1.1722 C   0  0  2  0  0  0  0  0  0  0  0  0
    0.0228   -0.6938    1.2003 C   0  0  2  0  0  0  0  0  0  0  0  0
    0.0199   -0.0614    2.3645 N   0  0  0  0  0  0  0  0  0  0  0  0
    0.0295   -0.7574    3.4888 C   0  0  0  0  0  0  0  0  0  0  0  0
    0.0430   -2.1431    3.4607 C   0  0  0  0  0  0  0  0  0  0  0  0
    0.0509   -2.7884    2.3073 N   0  0  0  0  0  0  0  0  0  0  0  0
    0.0643   -4.2041    2.2822 O   0  0  0  0  0  0  0  0  0  0  0  0
    1.0048    1.8381    0.0023 H   0  0  0  0  0  0  0  0  0  0  0  0
   -0.5450    1.8219   -0.8730 H   0  0  0  0  0  0  0  0  0  0  0  0
   -0.5280    1.8123    0.9069 H   0  0  0  0  0  0  0  0  0  0  0  0
    0.0271   -0.2415    4.4376 H   0  0  0  0  0  0  0  0  0  0  0  0
    0.0511   -2.6988    4.3867 H   0  0  0  0  0  0  0  0  0  0  0  0
  1  2  1  0  0  0  0
  1 15  1  0  0  0  0
  1 16  1  0  0  0  0
  1 17  1  0  0  0  0
  2  3  1  0  0  0  0
  3  4  2  0  0  0  0
  3  5  1  0  0  0  0
  5  6  1  0  0  0  0
  6  7  2  0  0  0  0
  8  6  1  6  0  0  0
  8 13  1  0  0  0  0
  8  9  1  0  0  0  0
  9  2  1  1  0  0  0
  9 10  1  0  0  0  0
 10 11  1  0  0  0  0
 11 12  1  0  0  0  0
 11 18  1  0  0  0  0
 12 13  1  0  0  0  0
 12 19  1  0  0  0  0
 13 14  1  0  0  0  0
M  END
$$$$
ZINC000016990075
 OpenBabel11022112223D

 19 20  0  0  0  0  0  0  0  0999 V2000
   -0.0184    1.5028    0.0103 C   0  0  0  0  0  0  0  0  0  0  0  0
    0.0021   -0.0041    0.0020 C   0  0  0  0  0  0  0  0  0  0  0  0
    0.0055   -0.6468   -1.1370 N   0  0  0  0  0  0  0  0  0  0  0  0
    0.0240   -1.9822   -1.1621 C   0  0  0  0  0  0  0  0  0  0  0  0
    0.0400   -2.7165    0.0289 C   0  0  0  0  0  0  0  0  0  0  0  0
    0.0583   -4.0832   -0.0316 N   0  0  0  0  0  0  0  0  0  0  0  0
    0.0610   -4.7227   -1.2133 C   0  0  0  0  0  0  0  0  0  0  0  0
    0.0775   -5.9382   -1.2193 O   0  0  0  0  0  0  0  0  0  0  0  0
    0.0457   -4.0720   -2.3879 N   0  0  0  0  0  0  0  0  0  0  0  0
    0.0276   -2.7222   -2.4338 C   0  0  0  0  0  0  0  0  0  0  0  0
    0.0134   -2.1338   -3.4986 O   0  0  0  0  0  0  0  0  0  0  0  0
    0.0367   -2.0636    1.2205 N   0  0  0  0  0  0  0  0  0  0  0  0
    0.0233   -0.7129    1.2269 C   0  0  0  0  0  0  0  0  0  0  0  0
    0.0201   -0.1067    2.2840 O   0  0  0  0  0  0  0  0  0  0  0  0
    1.0042    1.8801    0.0026 H   0  0  0  0  0  0  0  0  0  0  0  0
   -0.5455    1.8639   -0.8728 H   0  0  0  0  0  0  0  0  0  0  0  0
   -0.5286    1.8543    0.9071 H   0  0  0  0  0  0  0  0  0  0  0  0
    0.0697   -4.5979    0.7904 H   0  0  0  0  0  0  0  0  0  0  0  0
    0.0473   -2.5598    2.0538 H   0  0  0  0  0  0  0  0  0  0  0  0
  1  2  1  0  0  0  0
  1 15  1  0  0  0  0
  1 16  1  0  0  0  0
  1 17  1  0  0  0  0
  2 13  1  0  0  0  0
  2  3  2  0  0  0  0
  3  4  1  0  0  0  0
  4 10  1  0  0  0  0
  4  5  2  0  0  0  0
  5  6  1  0  0  0  0
  5 12  1  0  0  0  0
  6  7  1  0  0  0  0
  6 18  1  0  0  0  0
  7  8  2  0  0  0  0
  7  9  1  0  0  0  0
  9 10  1  0  0  0  0
 10 11  2  0  0  0  0
 12 13  1  0  0  0  0
 12 19  1  0  0  0  0
 13 14  2  0  0  0  0
M  END
$$$$
ZINC000019203309
 OpenBabel11022112223D

 20 19  0  0  0  0  0  0  0  0999 V2000
   -0.0178    1.4608    0.0101 C   0  0  0  0  0  0  0  0  0  0  0  0
    0.0021   -0.0041    0.0020 N   0  0  0  0  0  0  0  0  0  0  0  0
    0.5851   -0.6645   -1.0180 C   0  0  0  0  0  0  0  0  0  0  0  0
    1.0943   -0.0448   -1.9311 O   0  0  0  0  0  0  0  0  0  0  0  0
    0.6034   -2.0121   -1.0254 N   0  0  0  0  0  0  0  0  0  0  0  0
    1.1864   -2.6726   -2.0454 C   0  0  0  0  0  0  0  0  0  0  0  0
    1.6944   -2.0544   -2.9562 O   0  0  0  0  0  0  0  0  0  0  0  0
    1.2068   -4.1794   -2.0537 C   0  0  0  0  0  0  0  0  0  0  0  0
    2.8355   -4.7682   -1.4845 P   0  0  2  0  0  0  0  0  0  0  0  0
    3.1502   -4.1554   -0.1016 O   0  0  0  0  0  0  0  0  0  0  0  0
    3.9208   -4.3391   -2.4969 O   0  0  0  0  0  0  0  0  0  0  0  0
    2.8150   -6.3738   -1.3680 O   0  0  0  0  0  0  0  0  0  0  0  0
    1.0048    1.8381    0.0023 H   0  0  0  0  0  0  0  0  0  0  0  0
   -0.5450    1.8219   -0.8730 H   0  0  0  0  0  0  0  0  0  0  0  0
   -0.5280    1.8123    0.9069 H   0  0  0  0  0  0  0  0  0  0  0  0
   -0.4044   -0.4986    0.7308 H   0  0  0  0  0  0  0  0  0  0  0  0
    0.1969   -2.5067   -0.2966 H   0  0  0  0  0  0  0  0  0  0  0  0
    0.4309   -4.5570   -1.3877 H   0  0  0  0  0  0  0  0  0  0  0  0
    1.0236   -4.5397   -3.0660 H   0  0  0  0  0  0  0  0  0  0  0  0
    3.6511   -6.7572   -1.0696 H   0  0  0  0  0  0  0  0  0  0  0  0
  1  2  1  0  0  0  0
  1 13  1  0  0  0  0
  1 14  1  0  0  0  0
  1 15  1  0  0  0  0
  2  3  1  0  0  0  0
  2 16  1  0  0  0  0
  3  4  2  0  0  0  0
  3  5  1  0  0  0  0
  5  6  1  0  0  0  0
  5 17  1  0  0  0  0
  6  7  2  0  0  0  0
  6  8  1  0  0  0  0
  8 18  1  0  0  0  0
  8 19  1  0  0  0  0
  9  8  1  6  0  0  0
  9 10  2  0  0  0  0
  9 11  1  0  0  0  0
  9 12  1  0  0  0  0
 12 20  1  0  0  0  0
M  END
$$$$
ZINC000000967255
 OpenBabel11022112223D

 20 20  0  0  0  0  0  0  0  0999 V2000
   -0.4772    1.4172    0.2918 C   0  0  0  0  0  0  0  0  0  0  0  0
   -0.2988   -0.0332    0.1869 N   0  0  0  0  0  0  0  0  0  0  0  0
    0.4638   -0.7007    1.1152 C   0  0  0  0  0  0  0  0  0  0  0  0
    0.6418   -2.0657    1.0208 C   0  0  0  0  0  0  0  0  0  0  0  0
    0.0448   -2.7964   -0.0282 N   0  0  0  0  0  0  0  0  0  0  0  0
   -0.8073   -3.8046    0.2515 C   0  0  0  0  0  0  0  0  0  0  0  0
   -1.1282   -4.0265    1.4003 O   0  0  0  0  0  0  0  0  0  0  0  0
    1.4296   -2.7166    1.9887 C   0  0  0  0  0  0  0  0  0  0  0  0
    1.6036   -3.9221    1.9290 O   0  0  0  0  0  0  0  0  0  0  0  0
    1.9904   -1.9988    2.9815 N   0  0  0  0  0  0  0  0  0  0  0  0
    1.8059   -0.6689    3.0575 C   0  0  0  0  0  0  0  0  0  0  0  0
    2.3240   -0.0452    3.9638 O   0  0  0  0  0  0  0  0  0  0  0  0
    1.0632   -0.0149    2.1460 N   0  0  0  0  0  0  0  0  0  0  0  0
    0.4946    1.9077    0.2360 H   0  0  0  0  0  0  0  0  0  0  0  0
   -1.1076    1.7658   -0.5262 H   0  0  0  0  0  0  0  0  0  0  0  0
   -0.9512    1.6570    1.2435 H   0  0  0  0  0  0  0  0  0  0  0  0
   -0.7190   -0.5223   -0.5377 H   0  0  0  0  0  0  0  0  0  0  0  0
    0.2470   -2.5740   -0.9505 H   0  0  0  0  0  0  0  0  0  0  0  0
   -1.2037   -4.4139   -0.5472 H   0  0  0  0  0  0  0  0  0  0  0  0
    0.9438    0.9448    2.2203 H   0  0  0  0  0  0  0  0  0  0  0  0
  1  2  1  0  0  0  0
  1 14  1  0  0  0  0
  1 15  1  0  0  0  0
  1 16  1  0  0  0  0
  2  3  1  0  0  0  0
  2 17  1  0  0  0  0
  3 13  1  0  0  0  0
  3  4  2  0  0  0  0
  4  5  1  0  0  0  0
  4  8  1  0  0  0  0
  5  6  1  0  0  0  0
  5 18  1  0  0  0  0
  6  7  2  0  0  0  0
  6 19  1  0  0  0  0
  8  9  2  0  0  0  0
  8 10  1  0  0  0  0
 10 11  1  0  0  0  0
 11 12  2  0  0  0  0
 11 13  1  0  0  0  0
 13 20  1  0  0  0  0
M  END
$$$$
ZINC000043193697
 OpenBabel11022112223D

 19 20  0  0  0  0  0  0  0  0999 V2000
   -0.0165    1.3679    0.0096 N   0  0  0  0  0  0  0  0  0  0  0  0
    0.0021   -0.0041    0.0020 C   0  0  0  0  0  0  0  0  0  0  0  0
   -1.1388   -0.6599    0.0039 N   0  0  0  0  0  0  0  0  0  0  0  0
   -1.1650   -1.9975   -0.0034 C   0  0  0  0  0  0  0  0  0  0  0  0
    0.0304   -2.7025   -0.0079 C   0  0  0  0  0  0  0  0  0  0  0  0
   -0.0061   -4.1128   -0.0061 N   0  0  0  0  0  0  0  0  0  0  0  0
   -1.1643   -4.7655    0.6249 C   0  0  0  0  0  0  0  0  0  0  0  0
   -2.4130   -4.0068    0.2536 C   0  0  0  0  0  0  0  0  0  0  0  0
   -3.4731   -4.5927    0.1943 O   0  0  0  0  0  0  0  0  0  0  0  0
   -2.3678   -2.6883   -0.0126 N   0  0  0  0  0  0  0  0  0  0  0  0
    1.2406   -2.0014   -0.0116 C   0  0  0  0  0  0  0  0  0  0  0  0
    2.3078   -2.5953   -0.0187 O   0  0  0  0  0  0  0  0  0  0  0  0
    1.1999   -0.6500   -0.0129 N   0  0  0  0  0  0  0  0  0  0  0  0
    0.8168    1.8643    0.0043 H   0  0  0  0  0  0  0  0  0  0  0  0
   -0.8631    1.8414    0.0162 H   0  0  0  0  0  0  0  0  0  0  0  0
    0.7071   -4.6339   -0.4070 H   0  0  0  0  0  0  0  0  0  0  0  0
   -1.2424   -5.7932    0.2702 H   0  0  0  0  0  0  0  0  0  0  0  0
   -1.0417   -4.7594    1.7080 H   0  0  0  0  0  0  0  0  0  0  0  0
   -3.1894   -2.2136   -0.2140 H   0  0  0  0  0  0  0  0  0  0  0  0
  1  2  1  0  0  0  0
  1 14  1  0  0  0  0
  1 15  1  0  0  0  0
  2 13  1  0  0  0  0
  2  3  2  0  0  0  0
  3  4  1  0  0  0  0
  4 10  1  0  0  0  0
  4  5  2  0  0  0  0
  5  6  1  0  0  0  0
  5 11  1  0  0  0  0
  6  7  1  0  0  0  0
  6 16  1  0  0  0  0
  7  8  1  0  0  0  0
  7 17  1  0  0  0  0
  7 18  1  0  0  0  0
  8  9  2  0  0  0  0
  8 10  1  0  0  0  0
 10 19  1  0  0  0  0
 11 12  2  0  0  0  0
 11 13  1  0  0  0  0
M  END
$$$$
ZINC000043193694
 OpenBabel11022112223D

 19 20  0  0  0  0  0  0  0  0999 V2000
   -0.0165    1.3679    0.0096 N   0  0  0  0  0  0  0  0  0  0  0  0
    0.0021   -0.0041    0.0020 C   0  0  0  0  0  0  0  0  0  0  0  0
   -1.1388   -0.6599    0.0039 N   0  0  0  0  0  0  0  0  0  0  0  0
   -1.1650   -1.9975   -0.0034 C   0  0  0  0  0  0  0  0  0  0  0  0
    0.0304   -2.7025   -0.0079 C   0  0  0  0  0  0  0  0  0  0  0  0
   -0.0061   -4.1128   -0.0061 N   0  0  0  0  0  0  0  0  0  0  0  0
   -1.1643   -4.7655    0.6249 C   0  0  0  0  0  0  0  0  0  0  0  0
   -2.4130   -4.0068    0.2536 C   0  0  0  0  0  0  0  0  0  0  0  0
   -3.4731   -4.5927    0.1943 O   0  0  0  0  0  0  0  0  0  0  0  0
   -2.3678   -2.6883   -0.0126 N   0  0  0  0  0  0  0  0  0  0  0  0
    1.2406   -2.0014   -0.0116 C   0  0  0  0  0  0  0  0  0  0  0  0
    2.3078   -2.5953   -0.0187 O   0  0  0  0  0  0  0  0  0  0  0  0
    1.1999   -0.6500   -0.0129 N   0  0  0  0  0  0  0  0  0  0  0  0
    0.8168    1.8643    0.0043 H   0  0  0  0  0  0  0  0  0  0  0  0
   -0.8631    1.8414    0.0162 H   0  0  0  0  0  0  0  0  0  0  0  0
    0.7071   -4.6339   -0.4070 H   0  0  0  0  0  0  0  0  0  0  0  0
   -1.2424   -5.7932    0.2702 H   0  0  0  0  0  0  0  0  0  0  0  0
   -1.0417   -4.7594    1.7080 H   0  0  0  0  0  0  0  0  0  0  0  0
   -3.1894   -2.2136   -0.2140 H   0  0  0  0  0  0  0  0  0  0  0  0
  1  2  1  0  0  0  0
  1 14  1  0  0  0  0
  1 15  1  0  0  0  0
  2 13  1  0  0  0  0
  2  3  2  0  0  0  0
  3  4  1  0  0  0  0
  4 10  1  0  0  0  0
  4  5  2  0  0  0  0
  5  6  1  0  0  0  0
  5 11  1  0  0  0  0
  6  7  1  0  0  0  0
  6 16  1  0  0  0  0
  7  8  1  0  0  0  0
  7 17  1  0  0  0  0
  7 18  1  0  0  0  0
  8  9  2  0  0  0  0
  8 10  1  0  0  0  0
 10 19  1  0  0  0  0
 11 12  2  0  0  0  0
 11 13  1  0  0  0  0
M  END
$$$$
ZINC000043193696
 OpenBabel11022112223D

 19 20  0  0  0  0  0  0  0  0999 V2000
   -0.0165    1.3679    0.0096 N   0  0  0  0  0  0  0  0  0  0  0  0
    0.0021   -0.0041    0.0020 C   0  0  0  0  0  0  0  0  0  0  0  0
   -1.1388   -0.6599    0.0039 N   0  0  0  0  0  0  0  0  0  0  0  0
   -1.1650   -1.9975   -0.0034 C   0  0  0  0  0  0  0  0  0  0  0  0
    0.0304   -2.7025   -0.0079 C   0  0  0  0  0  0  0  0  0  0  0  0
   -0.0061   -4.1128   -0.0061 N   0  0  0  0  0  0  0  0  0  0  0  0
   -1.1643   -4.7655    0.6249 C   0  0  0  0  0  0  0  0  0  0  0  0
   -2.4130   -4.0068    0.2536 C   0  0  0  0  0  0  0  0  0  0  0  0
   -3.4731   -4.5927    0.1943 O   0  0  0  0  0  0  0  0  0  0  0  0
   -2.3678   -2.6883   -0.0126 N   0  0  0  0  0  0  0  0  0  0  0  0
    1.2406   -2.0014   -0.0116 C   0  0  0  0  0  0  0  0  0  0  0  0
    2.3078   -2.5953   -0.0187 O   0  0  0  0  0  0  0  0  0  0  0  0
    1.1999   -0.6500   -0.0129 N   0  0  0  0  0  0  0  0  0  0  0  0
    0.8168    1.8643    0.0043 H   0  0  0  0  0  0  0  0  0  0  0  0
   -0.8631    1.8414    0.0162 H   0  0  0  0  0  0  0  0  0  0  0  0
    0.7071   -4.6339   -0.4070 H   0  0  0  0  0  0  0  0  0  0  0  0
   -1.2424   -5.7932    0.2702 H   0  0  0  0  0  0  0  0  0  0  0  0
   -1.0417   -4.7594    1.7080 H   0  0  0  0  0  0  0  0  0  0  0  0
   -3.1894   -2.2136   -0.2140 H   0  0  0  0  0  0  0  0  0  0  0  0
  1  2  1  0  0  0  0
  1 14  1  0  0  0  0
  1 15  1  0  0  0  0
  2 13  1  0  0  0  0
  2  3  2  0  0  0  0
  3  4  1  0  0  0  0
  4 10  1  0  0  0  0
  4  5  2  0  0  0  0
  5  6  1  0  0  0  0
  5 11  1  0  0  0  0
  6  7  1  0  0  0  0
  6 16  1  0  0  0  0
  7  8  1  0  0  0  0
  7 17  1  0  0  0  0
  7 18  1  0  0  0  0
  8  9  2  0  0  0  0
  8 10  1  0  0  0  0
 10 19  1  0  0  0  0
 11 12  2  0  0  0  0
 11 13  1  0  0  0  0
M  END
$$$$
ZINC000031672095
 OpenBabel11022112223D

 17 17  0  0  1  0  0  0  0  0999 V2000
   -0.0187    1.5258    0.0104 C   0  0  0  0  0  0  0  0  0  0  0  0
    0.0021   -0.0041    0.0020 C   0  0  1  0  0  0  0  0  0  0  0  0
   -1.3857   -0.4774    0.0911 N   0  0  0  0  0  0  0  0  0  0  0  0
    0.5678   -0.4612   -1.3293 C   0  0  0  0  0  0  0  0  0  0  0  0
    0.0491   -0.1392   -2.3766 O   0  0  0  0  0  0  0  0  0  0  0  0
    1.6706   -1.2393   -1.3044 N   0  0  0  0  0  0  0  0  0  0  0  0
    2.2552   -1.6030   -0.1572 C   0  0  0  0  0  0  0  0  0  0  0  0
    3.2446   -2.3046   -0.2272 O   0  0  0  0  0  0  0  0  0  0  0  0
    1.8301   -1.2502    1.0613 N   0  0  0  0  0  0  0  0  0  0  0  0
    0.7412   -0.4729    1.2411 C   0  0  0  0  0  0  0  0  0  0  0  0
    0.3674   -0.1615    2.3515 O   0  0  0  0  0  0  0  0  0  0  0  0
    1.0039    1.9031    0.0027 H   0  0  0  0  0  0  0  0  0  0  0  0
   -0.5459    1.8868   -0.8726 H   0  0  0  0  0  0  0  0  0  0  0  0
   -0.5289    1.8773    0.9072 H   0  0  0  0  0  0  0  0  0  0  0  0
   -1.9322   -0.1442   -0.6890 H   0  0  0  0  0  0  0  0  0  0  0  0
   -1.4212   -1.4838    0.1539 H   0  0  0  0  0  0  0  0  0  0  0  0
    2.3189   -1.5624    1.8388 H   0  0  0  0  0  0  0  0  0  0  0  0
  1 12  1  0  0  0  0
  1 13  1  0  0  0  0
  1 14  1  0  0  0  0
  2  1  1  1  0  0  0
  2 10  1  0  0  0  0
  2  3  1  0  0  0  0
  2  4  1  0  0  0  0
  3 15  1  0  0  0  0
  3 16  1  0  0  0  0
  4  5  2  0  0  0  0
  4  6  1  0  0  0  0
  6  7  1  0  0  0  0
  7  8  2  0  0  0  0
  7  9  1  0  0  0  0
  9 10  1  0  0  0  0
  9 17  1  0  0  0  0
 10 11  2  0  0  0  0
M  END
$$$$
ZINC000095635347
 OpenBabel11022112223D

 15 15  0  0  1  0  0  0  0  0999 V2000
   -0.0162    1.3436    0.0094 N   0  0  0  0  0  0  0  0  0  0  0  0
    0.0021   -0.0041    0.0020 C   0  0  0  0  0  0  0  0  0  0  0  0
    1.0605   -0.5961   -0.0113 O   0  0  0  0  0  0  0  0  0  0  0  0
   -1.2926   -0.7753    0.0102 C   0  0  1  0  0  0  0  0  0  0  0  0
   -1.0533   -2.1472   -0.4438 N   0  0  0  0  0  0  0  0  0  0  0  0
   -0.7930   -3.1057    0.3663 C   0  0  0  0  0  0  0  0  0  0  0  0
   -0.7194   -2.9638    1.7269 N   0  0  0  0  0  0  0  0  0  0  0  0
   -1.2478   -1.8703    2.3266 C   0  0  0  0  0  0  0  0  0  0  0  0
   -1.2386   -1.7366    3.5327 O   0  0  0  0  0  0  0  0  0  0  0  0
   -1.8452   -0.8315    1.4209 C   0  0  0  0  0  0  0  0  0  0  0  0
   -2.7162   -0.0831    1.7953 O   0  0  0  0  0  0  0  0  0  0  0  0
    0.8172    1.8399    0.0041 H   0  0  0  0  0  0  0  0  0  0  0  0
   -0.8627    1.8171    0.0160 H   0  0  0  0  0  0  0  0  0  0  0  0
   -2.0135   -0.2901   -0.6478 H   0  0  0  0  0  0  0  0  0  0  0  0
   -0.6212   -4.0873   -0.0499 H   0  0  0  0  0  0  0  0  0  0  0  0
  1  2  1  0  0  0  0
  1 12  1  0  0  0  0
  1 13  1  0  0  0  0
  2  3  2  0  0  0  0
  2  4  1  0  0  0  0
  4 10  1  0  0  0  0
  4  5  1  0  0  0  0
  4 14  1  6  0  0  0
  5  6  2  0  0  0  0
  6  7  1  0  0  0  0
  6 15  1  0  0  0  0
  7  8  1  0  0  0  0
  8  9  2  0  0  0  0
  8 10  1  0  0  0  0
 10 11  2  0  0  0  0
M  END
$$$$
ZINC000005462261
 OpenBabel11022112223D

 20 20  0  0  0  0  0  0  0  0999 V2000
   -0.0176    1.4478    0.0100 C   0  0  0  0  0  0  0  0  0  0  0  0
    0.0021   -0.0041    0.0020 O   0  0  0  0  0  0  0  0  0  0  0  0
    0.6009   -0.6022   -1.0472 C   0  0  0  0  0  0  0  0  0  0  0  0
    1.0931    0.0713   -1.9311 O   0  0  0  0  0  0  0  0  0  0  0  0
    0.6587   -2.0700   -1.1223 C   0  0  0  0  0  0  0  0  0  0  0  0
    1.2314   -2.8274   -2.1110 C   0  0  0  0  0  0  0  0  0  0  0  0
    1.9321   -2.3208   -3.3452 C   0  0  0  0  0  0  0  0  0  0  0  0
    3.3991   -2.1399   -3.0514 C   0  0  0  0  0  0  0  0  0  0  0  0
    4.2291   -1.6924   -4.0144 N   0  0  0  0  0  0  0  0  0  0  0  0
    3.8329   -2.3970   -1.9484 O   0  0  0  0  0  0  0  0  0  0  0  0
    1.0458   -4.1008   -1.7637 N   0  0  0  0  0  0  0  0  0  0  0  0
    0.4090   -4.1520   -0.6486 N   0  0  0  0  0  0  0  0  0  0  0  0
    0.1563   -2.9667   -0.2152 N   0  0  0  0  0  0  0  0  0  0  0  0
    1.0050    1.8251    0.0023 H   0  0  0  0  0  0  0  0  0  0  0  0
   -0.5448    1.8089   -0.8731 H   0  0  0  0  0  0  0  0  0  0  0  0
   -0.5278    1.7993    0.9068 H   0  0  0  0  0  0  0  0  0  0  0  0
    1.8097   -3.0412   -4.1540 H   0  0  0  0  0  0  0  0  0  0  0  0
    1.5004   -1.3648   -3.6416 H   0  0  0  0  0  0  0  0  0  0  0  0
    3.8822   -1.4868   -4.8966 H   0  0  0  0  0  0  0  0  0  0  0  0
    5.1733   -1.5760   -3.8253 H   0  0  0  0  0  0  0  0  0  0  0  0
  1  2  1  0  0  0  0
  1 14  1  0  0  0  0
  1 15  1  0  0  0  0
  1 16  1  0  0  0  0
  2  3  1  0  0  0  0
  3  4  2  0  0  0  0
  3  5  1  0  0  0  0
  5 13  1  0  0  0  0
  5  6  2  0  0  0  0
  6  7  1  0  0  0  0
  6 11  1  0  0  0  0
  7  8  1  0  0  0  0
  7 17  1  0  0  0  0
  7 18  1  0  0  0  0
  8  9  1  0  0  0  0
  8 10  2  0  0  0  0
  9 19  1  0  0  0  0
  9 20  1  0  0  0  0
 11 12  2  0  0  0  0
 12 13  1  0  0  0  0
M  END
$$$$
ZINC000005462261
 OpenBabel11022112223D

 20 20  0  0  0  0  0  0  0  0999 V2000
   -0.0176    1.4478    0.0100 C   0  0  0  0  0  0  0  0  0  0  0  0
    0.0021   -0.0041    0.0020 O   0  0  0  0  0  0  0  0  0  0  0  0
    0.6007   -0.6020   -1.0468 C   0  0  0  0  0  0  0  0  0  0  0  0
    1.0928    0.0714   -1.9305 O   0  0  0  0  0  0  0  0  0  0  0  0
    0.6586   -2.0728   -1.1220 C   0  0  0  0  0  0  0  0  0  0  0  0
    1.2383   -2.7995   -2.1238 C   0  0  0  0  0  0  0  0  0  0  0  0
    1.9307   -2.2522   -3.3454 C   0  0  0  0  0  0  0  0  0  0  0  0
    3.3951   -2.0572   -3.0477 C   0  0  0  0  0  0  0  0  0  0  0  0
    4.2177   -1.5738   -3.9996 N   0  0  0  0  0  0  0  0  0  0  0  0
    3.8334   -2.3353   -1.9516 O   0  0  0  0  0  0  0  0  0  0  0  0
    1.0727   -4.0995   -1.8092 N   0  0  0  0  0  0  0  0  0  0  0  0
    0.3781   -4.1373   -0.5919 N   0  0  0  0  0  0  0  0  0  0  0  0
    0.1551   -2.9268   -0.2139 N   0  0  0  0  0  0  0  0  0  0  0  0
    1.0050    1.8251    0.0023 H   0  0  0  0  0  0  0  0  0  0  0  0
   -0.5448    1.8089   -0.8731 H   0  0  0  0  0  0  0  0  0  0  0  0
   -0.5278    1.7993    0.9068 H   0  0  0  0  0  0  0  0  0  0  0  0
    1.8182   -2.9539   -4.1718 H   0  0  0  0  0  0  0  0  0  0  0  0
    1.4848   -1.2955   -3.6177 H   0  0  0  0  0  0  0  0  0  0  0  0
    3.8671   -1.3514   -4.8763 H   0  0  0  0  0  0  0  0  0  0  0  0
    5.1603   -1.4483   -3.8081 H   0  0  0  0  0  0  0  0  0  0  0  0
  1  2  1  0  0  0  0
  1 14  1  0  0  0  0
  1 15  1  0  0  0  0
  1 16  1  0  0  0  0
  2  3  1  0  0  0  0
  3  4  2  0  0  0  0
  3  5  1  0  0  0  0
  5 13  1  0  0  0  0
  5  6  2  0  0  0  0
  6  7  1  0  0  0  0
  6 11  1  0  0  0  0
  7  8  1  0  0  0  0
  7 17  1  0  0  0  0
  7 18  1  0  0  0  0
  8  9  1  0  0  0  0
  8 10  2  0  0  0  0
  9 19  1  0  0  0  0
  9 20  1  0  0  0  0
 11 12  1  0  0  0  0
 12 13  2  0  0  0  0
M  END
$$$$
ZINC000005462261
 OpenBabel11022112223D

 20 20  0  0  0  0  0  0  0  0999 V2000
   -0.0176    1.4478    0.0100 C   0  0  0  0  0  0  0  0  0  0  0  0
    0.0021   -0.0041    0.0020 O   0  0  0  0  0  0  0  0  0  0  0  0
    0.6005   -0.6018   -1.0464 C   0  0  0  0  0  0  0  0  0  0  0  0
    1.0924    0.0714   -1.9299 O   0  0  0  0  0  0  0  0  0  0  0  0
    0.6585   -2.0755   -1.1218 C   0  0  0  0  0  0  0  0  0  0  0  0
    0.1679   -2.9430   -0.2489 N   0  0  0  0  0  0  0  0  0  0  0  0
    0.4201   -4.1319   -0.6689 N   0  0  0  0  0  0  0  0  0  0  0  0
    1.0579   -4.1036   -1.7842 N   0  0  0  0  0  0  0  0  0  0  0  0
    1.2422   -2.8554   -2.1409 C   0  0  0  0  0  0  0  0  0  0  0  0
    1.9427   -2.3573   -3.3788 C   0  0  0  0  0  0  0  0  0  0  0  0
    0.9432   -2.2114   -4.4971 C   0  0  0  0  0  0  0  0  0  0  0  0
    1.3454   -1.7769   -5.7079 N   0  0  0  0  0  0  0  0  0  0  0  0
   -0.2231   -2.4849   -4.3077 O   0  0  0  0  0  0  0  0  0  0  0  0
    1.0050    1.8251    0.0023 H   0  0  0  0  0  0  0  0  0  0  0  0
   -0.5448    1.8089   -0.8731 H   0  0  0  0  0  0  0  0  0  0  0  0
   -0.5278    1.7993    0.9068 H   0  0  0  0  0  0  0  0  0  0  0  0
    2.4010   -1.3901   -3.1726 H   0  0  0  0  0  0  0  0  0  0  0  0
    2.7139   -3.0698   -3.6714 H   0  0  0  0  0  0  0  0  0  0  0  0
    2.2781   -1.5581   -5.8595 H   0  0  0  0  0  0  0  0  0  0  0  0
    0.7020   -1.6830   -6.4278 H   0  0  0  0  0  0  0  0  0  0  0  0
  1  2  1  0  0  0  0
  1 14  1  0  0  0  0
  1 15  1  0  0  0  0
  1 16  1  0  0  0  0
  2  3  1  0  0  0  0
  3  4  2  0  0  0  0
  3  5  1  0  0  0  0
  5  9  1  0  0  0  0
  5  6  2  0  0  0  0
  6  7  1  0  0  0  0
  7  8  1  0  0  0  0
  8  9  2  0  0  0  0
  9 10  1  0  0  0  0
 10 11  1  0  0  0  0
 10 17  1  0  0  0  0
 10 18  1  0  0  0  0
 11 12  1  0  0  0  0
 11 13  2  0  0  0  0
 12 19  1  0  0  0  0
 12 20  1  0  0  0  0
M  END
$$$$
ZINC000001600800
 OpenBabel11022112223D

 15 14  0  0  0  0  0  0  0  0999 V2000
   -0.0166    1.3757    0.0096 N   0  0  0  0  0  0  0  0  0  0  0  0
    0.0021   -0.0041    0.0020 C   0  0  0  0  0  0  0  0  0  0  0  0
    1.2063   -0.6777   -0.0131 N   0  0  0  0  0  0  0  0  0  0  0  0
   -1.1155   -0.6697    0.0091 N   0  0  0  0  0  0  0  0  0  0  0  0
   -2.3512    0.0215    0.0246 O   0  0  0  0  0  0  0  0  0  0  0  0
   -3.4957   -0.8341    0.0310 C   0  0  0  0  0  0  0  0  0  0  0  0
   -4.7487    0.0031    0.0474 C   0  0  0  0  0  0  0  0  0  0  0  0
   -4.6689    1.2197    0.0532 O   0  0  0  0  0  0  0  0  0  0  0  0
   -5.8421   -0.5362    0.0550 O   0  0  0  0  0  0  0  0  0  0  0  0
    0.8167    1.8721    0.0043 H   0  0  0  0  0  0  0  0  0  0  0  0
   -0.8632    1.8493    0.0162 H   0  0  0  0  0  0  0  0  0  0  0  0
    2.0397   -0.1813   -0.0184 H   0  0  0  0  0  0  0  0  0  0  0  0
    1.2195   -1.6476   -0.0184 H   0  0  0  0  0  0  0  0  0  0  0  0
   -3.4876   -1.4584   -0.8625 H   0  0  0  0  0  0  0  0  0  0  0  0
   -3.4706   -1.4680    0.9173 H   0  0  0  0  0  0  0  0  0  0  0  0
  1  2  1  0  0  0  0
  1 10  1  0  0  0  0
  1 11  1  0  0  0  0
  2  3  1  0  0  0  0
  2  4  2  0  0  0  0
  3 12  1  0  0  0  0
  3 13  1  0  0  0  0
  4  5  1  0  0  0  0
  5  6  1  0  0  0  0
  6  7  1  0  0  0  0
  6 14  1  0  0  0  0
  6 15  1  0  0  0  0
  7  8  2  0  0  0  0
  7  9  1  0  0  0  0
M  END
$$$$
ZINC000101647179
 OpenBabel11022112223D

 14 15  0  0  0  0  0  0  0  0999 V2000
    0.0021   -0.0041    0.0020 O   0  0  0  0  0  0  0  0  0  0  0  0
   -0.0144    1.2122    0.0087 C   0  0  0  0  0  0  0  0  0  0  0  0
   -1.1829    1.8901    0.0292 N   0  0  0  0  0  0  0  0  0  0  0  0
   -1.1934    3.2660    0.0366 C   0  0  0  0  0  0  0  0  0  0  0  0
   -2.3857    3.9068    0.0577 O   0  0  0  0  0  0  0  0  0  0  0  0
   -0.1070    3.9729    0.0246 N   0  0  0  0  0  0  0  0  0  0  0  0
    1.1557    3.3693    0.0032 N   0  0  0  0  0  0  0  0  0  0  0  0
    2.4069    3.8653   -0.0130 C   0  0  0  0  0  0  0  0  0  0  0  0
    2.8352    5.5228   -0.0099 S   0  0  0  0  0  0  0  0  0  0  0  0
    3.2634    2.8229   -0.0314 N   0  0  0  0  0  0  0  0  0  0  0  0
    2.4991    1.6469   -0.0261 N   0  0  0  0  0  0  0  0  0  0  0  0
    1.2405    1.9866    0.0009 C   0  0  0  0  0  0  0  0  0  0  0  0
   -2.0215    1.4027    0.0384 H   0  0  0  0  0  0  0  0  0  0  0  0
    4.2318    2.8769   -0.0462 H   0  0  0  0  0  0  0  0  0  0  0  0
  1  2  2  0  0  0  0
  2 12  1  0  0  0  0
  2  3  1  0  0  0  0
  3  4  1  0  0  0  0
  3 13  1  0  0  0  0
  4  5  1  0  0  0  0
  4  6  2  0  0  0  0
  6  7  1  0  0  0  0
  7 12  1  0  0  0  0
  7  8  1  0  0  0  0
  8  9  2  0  0  0  0
  8 10  1  0  0  0  0
 10 11  1  0  0  0  0
 10 14  1  0  0  0  0
 11 12  2  0  0  0  0
M  END
$$$$
ZINC000019203306
 OpenBabel11022112223D

 17 16  0  0  0  0  0  0  0  0999 V2000
   -0.0162    1.3436    0.0094 N   0  0  0  0  0  0  0  0  0  0  0  0
    0.0021   -0.0041    0.0020 C   0  0  0  0  0  0  0  0  0  0  0  0
    1.0627   -0.5974   -0.0113 O   0  0  0  0  0  0  0  0  0  0  0  0
   -1.1558   -0.6938    0.0094 N   0  0  0  0  0  0  0  0  0  0  0  0
   -1.1375   -2.0414    0.0020 C   0  0  0  0  0  0  0  0  0  0  0  0
   -0.0795   -2.6332   -0.0113 O   0  0  0  0  0  0  0  0  0  0  0  0
   -2.4322   -2.8126    0.0102 C   0  0  0  0  0  0  0  0  0  0  0  0
   -2.7854   -3.3890    1.7032 P   0  0  2  0  0  0  0  0  0  0  0  0
   -2.7804   -2.1834    2.6693 O   0  0  0  0  0  0  0  0  0  0  0  0
   -1.7034   -4.4023    2.1384 O   0  0  0  0  0  0  0  0  0  0  0  0
   -4.2302   -4.0986    1.7380 O   0  0  0  0  0  0  0  0  0  0  0  0
    0.8172    1.8399    0.0041 H   0  0  0  0  0  0  0  0  0  0  0  0
   -0.8627    1.8171    0.0160 H   0  0  0  0  0  0  0  0  0  0  0  0
   -2.0023   -0.2203    0.0200 H   0  0  0  0  0  0  0  0  0  0  0  0
   -3.2419   -2.1670   -0.3301 H   0  0  0  0  0  0  0  0  0  0  0  0
   -2.3479   -3.6713   -0.6558 H   0  0  0  0  0  0  0  0  0  0  0  0
   -4.4844   -4.4306    2.6100 H   0  0  0  0  0  0  0  0  0  0  0  0
  1  2  1  0  0  0  0
  1 12  1  0  0  0  0
  1 13  1  0  0  0  0
  2  3  2  0  0  0  0
  2  4  1  0  0  0  0
  4  5  1  0  0  0  0
  4 14  1  0  0  0  0
  5  6  2  0  0  0  0
  5  7  1  0  0  0  0
  7 15  1  0  0  0  0
  7 16  1  0  0  0  0
  8  7  1  6  0  0  0
  8  9  2  0  0  0  0
  8 10  1  0  0  0  0
  8 11  1  0  0  0  0
 11 17  1  0  0  0  0
M  END
$$$$
ZINC000043193695
 OpenBabel11022112223D

 19 20  0  0  0  0  0  0  0  0999 V2000
   -0.0165    1.3679    0.0096 N   0  0  0  0  0  0  0  0  0  0  0  0
    0.0021   -0.0041    0.0020 C   0  0  0  0  0  0  0  0  0  0  0  0
   -1.1388   -0.6599    0.0039 N   0  0  0  0  0  0  0  0  0  0  0  0
   -1.1650   -1.9975   -0.0034 C   0  0  0  0  0  0  0  0  0  0  0  0
    0.0304   -2.7025   -0.0079 C   0  0  0  0  0  0  0  0  0  0  0  0
   -0.0061   -4.1128   -0.0061 N   0  0  0  0  0  0  0  0  0  0  0  0
   -1.1643   -4.7655    0.6249 C   0  0  0  0  0  0  0  0  0  0  0  0
   -2.4130   -4.0068    0.2536 C   0  0  0  0  0  0  0  0  0  0  0  0
   -3.4731   -4.5927    0.1943 O   0  0  0  0  0  0  0  0  0  0  0  0
   -2.3678   -2.6883   -0.0126 N   0  0  0  0  0  0  0  0  0  0  0  0
    1.2406   -2.0014   -0.0116 C   0  0  0  0  0  0  0  0  0  0  0  0
    2.3078   -2.5953   -0.0187 O   0  0  0  0  0  0  0  0  0  0  0  0
    1.1999   -0.6500   -0.0129 N   0  0  0  0  0  0  0  0  0  0  0  0
    0.8168    1.8643    0.0043 H   0  0  0  0  0  0  0  0  0  0  0  0
   -0.8631    1.8414    0.0162 H   0  0  0  0  0  0  0  0  0  0  0  0
    0.7071   -4.6339   -0.4070 H   0  0  0  0  0  0  0  0  0  0  0  0
   -1.2424   -5.7932    0.2702 H   0  0  0  0  0  0  0  0  0  0  0  0
   -1.0417   -4.7594    1.7080 H   0  0  0  0  0  0  0  0  0  0  0  0
   -3.1894   -2.2136   -0.2140 H   0  0  0  0  0  0  0  0  0  0  0  0
  1  2  1  0  0  0  0
  1 14  1  0  0  0  0
  1 15  1  0  0  0  0
  2 13  1  0  0  0  0
  2  3  2  0  0  0  0
  3  4  1  0  0  0  0
  4 10  1  0  0  0  0
  4  5  2  0  0  0  0
  5  6  1  0  0  0  0
  5 11  1  0  0  0  0
  6  7  1  0  0  0  0
  6 16  1  0  0  0  0
  7  8  1  0  0  0  0
  7 17  1  0  0  0  0
  7 18  1  0  0  0  0
  8  9  2  0  0  0  0
  8 10  1  0  0  0  0
 10 19  1  0  0  0  0
 11 12  2  0  0  0  0
 11 13  1  0  0  0  0
M  END
$$$$
ZINC000038700891
 OpenBabel11022112223D

 16 17  0  0  0  0  0  0  0  0999 V2000
   -0.0184    1.5028    0.0103 C   0  0  0  0  0  0  0  0  0  0  0  0
    0.0021   -0.0041    0.0020 C   0  0  0  0  0  0  0  0  0  0  0  0
    0.0057   -0.6609   -1.1355 N   0  0  0  0  0  0  0  0  0  0  0  0
    0.0235   -1.9450   -1.1763 N   0  0  0  0  0  0  0  0  0  0  0  0
    0.0391   -2.6822   -0.0702 C   0  0  0  0  0  0  0  0  0  0  0  0
    0.0585   -4.0069    0.1354 N   0  0  0  0  0  0  0  0  0  0  0  0
    0.0683   -4.2656    1.4265 C   0  0  0  0  0  0  0  0  0  0  0  0
    0.0888   -5.4940    1.9787 O   0  0  0  0  0  0  0  0  0  0  0  0
    0.0552   -3.0864    2.1145 N   0  0  0  0  0  0  0  0  0  0  0  0
    0.0364   -2.0688    1.1545 N   0  0  0  0  0  0  0  0  0  0  0  0
    0.0234   -0.7236    1.2174 C   0  0  0  0  0  0  0  0  0  0  0  0
    0.0277   -0.1444    2.2907 O   0  0  0  0  0  0  0  0  0  0  0  0
    1.0042    1.8801    0.0026 H   0  0  0  0  0  0  0  0  0  0  0  0
   -0.5455    1.8639   -0.8728 H   0  0  0  0  0  0  0  0  0  0  0  0
   -0.5286    1.8543    0.9071 H   0  0  0  0  0  0  0  0  0  0  0  0
    0.0965   -6.2476    1.3728 H   0  0  0  0  0  0  0  0  0  0  0  0
  1  2  1  0  0  0  0
  1 13  1  0  0  0  0
  1 14  1  0  0  0  0
  1 15  1  0  0  0  0
  2 11  1  0  0  0  0
  2  3  2  0  0  0  0
  3  4  1  0  0  0  0
  4  5  2  0  0  0  0
  5 10  1  0  0  0  0
  5  6  1  0  0  0  0
  6  7  2  0  0  0  0
  7  8  1  0  0  0  0
  7  9  1  0  0  0  0
  8 16  1  0  0  0  0
  9 10  1  0  0  0  0
 10 11  1  0  0  0  0
 11 12  2  0  0  0  0
M  END
$$$$
ZINC000001562955
 OpenBabel11022112223D

 15 15  0  0  0  0  0  0  0  0999 V2000
   -0.0160    1.3320    0.0094 C   0  0  0  0  0  0  0  0  0  0  0  0
    0.0021   -0.0041    0.0020 C   0  0  0  0  0  0  0  0  0  0  0  0
   -1.1986   -0.7259    0.0038 N   0  0  0  0  0  0  0  0  0  0  0  0
   -1.1811   -2.0433   -0.2896 C   0  0  0  0  0  0  0  0  0  0  0  0
   -2.2148   -2.6838   -0.2943 O   0  0  0  0  0  0  0  0  0  0  0  0
    0.1029   -2.7007   -0.6053 C   0  0  0  0  0  0  0  0  0  0  0  0
    0.1179   -3.9109   -1.1716 C   0  0  0  0  0  0  0  0  0  0  0  0
    1.3052   -2.0463   -0.3073 N   0  0  0  0  0  0  0  0  0  0  0  0
    1.2877   -0.7302   -0.0142 C   0  0  0  0  0  0  0  0  0  0  0  0
    2.3225   -0.1465    0.2453 O   0  0  0  0  0  0  0  0  0  0  0  0
    0.9118    1.8846    0.0035 H   0  0  0  0  0  0  0  0  0  0  0  0
   -0.9586    1.8592    0.0167 H   0  0  0  0  0  0  0  0  0  0  0  0
   -0.8113   -4.4118   -1.4000 H   0  0  0  0  0  0  0  0  0  0  0  0
    1.0592   -4.3882   -1.4008 H   0  0  0  0  0  0  0  0  0  0  0  0
    2.1431   -2.5349   -0.3157 H   0  0  0  0  0  0  0  0  0  0  0  0
  1  2  2  0  0  0  0
  1 11  1  0  0  0  0
  1 12  1  0  0  0  0
  2  9  1  0  0  0  0
  2  3  1  0  0  0  0
  3  4  1  0  0  0  0
  4  5  2  0  0  0  0
  4  6  1  0  0  0  0
  6  7  2  0  0  0  0
  6  8  1  0  0  0  0
  7 13  1  0  0  0  0
  7 14  1  0  0  0  0
  8  9  1  0  0  0  0
  8 15  1  0  0  0  0
  9 10  2  0  0  0  0
M  END
$$$$
ZINC000006691138
 OpenBabel11022112223D

 10 10  0  0  0  0  0  0  0  0999 V2000
    1.0293    1.6964    0.0013 O   0  0  0  0  0  0  0  0  0  0  0  0
   -0.0126    1.0758    0.0080 C   0  0  0  0  0  0  0  0  0  0  0  0
   -1.1888    1.7338    0.0171 N   0  0  0  0  0  0  0  0  0  0  0  0
   -1.2076    3.1205    0.0247 C   0  0  0  0  0  0  0  0  0  0  0  0
   -0.1511    3.9308    0.0300 N   0  0  0  0  0  0  0  0  0  0  0  0
   -0.5914    5.1425    0.0341 N   0  0  0  0  0  0  0  0  0  0  0  0
   -1.8784    5.1250    0.0396 N   0  0  0  0  0  0  0  0  0  0  0  0
   -2.2857    3.9018    0.0341 N   0  0  0  0  0  0  0  0  0  0  0  0
    0.0021   -0.0041    0.0020 H   0  0  0  0  0  0  0  0  0  0  0  0
   -2.0222    1.2374    0.0184 H   0  0  0  0  0  0  0  0  0  0  0  0
  1  2  2  0  0  0  0
  2  3  1  0  0  0  0
  2  9  1  0  0  0  0
  3  4  1  0  0  0  0
  3 10  1  0  0  0  0
  4  8  1  0  0  0  0
  4  5  2  0  0  0  0
  5  6  1  0  0  0  0
  6  7  2  0  0  0  0
  7  8  1  0  0  0  0
M  END
$$$$
ZINC000002379100
 OpenBabel11022112223D

 24 23  0  0  0  0  0  0  0  0999 V2000
    0.3368    1.3383   -0.0436 N   0  0  0  0  0  0  0  0  0  0  0  0
    0.3676   -0.1224    0.0325 O   0  0  0  0  0  0  0  0  0  0  0  0
   -0.8886   -0.7454   -0.2427 C   0  0  0  0  0  0  0  0  0  0  0  0
   -0.7391   -2.2643   -0.1351 C   0  0  0  0  0  0  0  0  0  0  0  0
   -0.4205   -2.6279    1.2520 N   0  3  0  0  0  0  0  0  0  0  0  0
    0.3851   -2.1044    1.5604 H   0  0  0  0  0  0  0  0  0  0  0  0
   -1.5672   -2.3160    2.1157 C   0  0  0  0  0  0  0  0  0  0  0  0
   -2.7542   -3.1424    1.6926 C   0  0  0  0  0  0  0  0  0  0  0  0
   -2.6848   -3.8446    0.6983 O   0  0  0  0  0  0  0  0  0  0  0  0
   -3.7840   -3.1087    2.3445 O   0  0  0  0  0  0  0  0  0  0  0  0
   -0.1281   -4.0656    1.3266 C   0  0  0  0  0  0  0  0  0  0  0  0
    0.3558   -4.4086    2.7119 C   0  0  0  0  0  0  0  0  0  0  0  0
    0.4336   -3.5393    3.5632 O   0  0  0  0  0  0  0  0  0  0  0  0
    0.6696   -5.5555    2.9814 O   0  0  0  0  0  0  0  0  0  0  0  0
    1.2445    1.7301    0.1580 H   0  0  0  0  0  0  0  0  0  0  0  0
    0.0018    1.6465   -0.9441 H   0  0  0  0  0  0  0  0  0  0  0  0
   -1.6304   -0.4014    0.4781 H   0  0  0  0  0  0  0  0  0  0  0  0
   -1.2116   -0.4825   -1.2500 H   0  0  0  0  0  0  0  0  0  0  0  0
   -1.6725   -2.7431   -0.4311 H   0  0  0  0  0  0  0  0  0  0  0  0
    0.0645   -2.5976   -0.7918 H   0  0  0  0  0  0  0  0  0  0  0  0
   -1.3152   -2.5454    3.1510 H   0  0  0  0  0  0  0  0  0  0  0  0
   -1.8113   -1.2574    2.0272 H   0  0  0  0  0  0  0  0  0  0  0  0
   -1.0331   -4.6322    1.1071 H   0  0  0  0  0  0  0  0  0  0  0  0
    0.6436   -4.3176    0.5993 H   0  0  0  0  0  0  0  0  0  0  0  0
  1  2  1  0  0  0  0
  1 15  1  0  0  0  0
  1 16  1  0  0  0  0
  2  3  1  0  0  0  0
  3  4  1  0  0  0  0
  3 17  1  0  0  0  0
  3 18  1  0  0  0  0
  4  5  1  0  0  0  0
  4 19  1  0  0  0  0
  4 20  1  0  0  0  0
  5  6  1  0  0  0  0
  5  7  1  0  0  0  0
  5 11  1  0  0  0  0
  7  8  1  0  0  0  0
  7 21  1  0  0  0  0
  7 22  1  0  0  0  0
  8  9  2  0  0  0  0
  8 10  1  0  0  0  0
 11 12  1  0  0  0  0
 11 23  1  0  0  0  0
 11 24  1  0  0  0  0
 12 13  2  0  0  0  0
 12 14  1  0  0  0  0
M  CHG  1   5   1
M  END
$$$$
ZINC000002556659
 OpenBabel11022112223D

 24 23  0  0  1  0  0  0  0  0999 V2000
   -0.0178    1.4648    0.0101 N   0  0  0  0  0  0  0  0  0  0  0  0
    0.0021   -0.0041    0.0020 C   0  0  1  0  0  0  0  0  0  0  0  0
    0.5890   -0.3641    0.8470 H   0  0  0  0  0  0  0  0  0  0  0  0
   -1.4289   -0.5341    0.1123 C   0  0  0  0  0  0  0  0  0  0  0  0
   -1.9751   -0.1704    1.3817 O   0  0  0  0  0  0  0  0  0  0  0  0
    0.6205   -0.4910   -1.2831 C   0  0  0  0  0  0  0  0  0  0  0  0
    0.6741    0.2435   -2.2467 O   0  0  0  0  0  0  0  0  0  0  0  0
    1.1140   -1.7427   -1.3616 N   0  0  0  0  0  0  0  0  0  0  0  0
    1.7151   -2.2161   -2.6109 C   0  0  1  0  0  0  0  0  0  0  0  0
    2.2340   -1.3915   -3.0997 H   0  0  0  0  0  0  0  0  0  0  0  0
    2.7117   -3.3360   -2.3051 C   0  0  0  0  0  0  0  0  0  0  0  0
    2.0131   -4.4625   -1.7711 O   0  0  0  0  0  0  0  0  0  0  0  0
    0.6346   -2.7399   -3.5214 C   0  0  0  0  0  0  0  0  0  0  0  0
    0.7706   -2.6716   -4.7311 O   0  0  0  0  0  0  0  0  0  0  0  0
   -0.3756   -3.2321   -3.0484 O   0  0  0  0  0  0  0  0  0  0  0  0
    0.9191    1.8392    0.0032 H   0  0  0  0  0  0  0  0  0  0  0  0
   -0.5563    1.8234   -0.7642 H   0  0  0  0  0  0  0  0  0  0  0  0
   -2.0382   -0.1034   -0.6823 H   0  0  0  0  0  0  0  0  0  0  0  0
   -1.4225   -1.6200    0.0171 H   0  0  0  0  0  0  0  0  0  0  0  0
   -2.8824   -0.4745    1.5212 H   0  0  0  0  0  0  0  0  0  0  0  0
    1.0711   -2.3302   -0.5909 H   0  0  0  0  0  0  0  0  0  0  0  0
    3.2236   -3.6273   -3.2222 H   0  0  0  0  0  0  0  0  0  0  0  0
    3.4425   -2.9834   -1.5773 H   0  0  0  0  0  0  0  0  0  0  0  0
    2.5838   -5.2122   -1.5535 H   0  0  0  0  0  0  0  0  0  0  0  0
  1  2  1  0  0  0  0
  1 16  1  0  0  0  0
  1 17  1  0  0  0  0
  2  3  1  1  0  0  0
  2  4  1  0  0  0  0
  2  6  1  0  0  0  0
  4  5  1  0  0  0  0
  4 18  1  0  0  0  0
  4 19  1  0  0  0  0
  5 20  1  0  0  0  0
  6  7  2  0  0  0  0
  6  8  1  0  0  0  0
  8  9  1  0  0  0  0
  8 21  1  0  0  0  0
  9 10  1  6  0  0  0
  9 11  1  0  0  0  0
  9 13  1  0  0  0  0
 11 12  1  0  0  0  0
 11 22  1  0  0  0  0
 11 23  1  0  0  0  0
 12 24  1  0  0  0  0
 13 14  2  0  0  0  0
 13 15  1  0  0  0  0
M  END
$$$$
ZINC000005411208
 OpenBabel11022112223D

 17 16  0  0  1  0  0  0  0  0999 V2000
   -0.0178    1.4648    0.0101 N   0  0  0  0  0  0  0  0  0  0  0  0
    0.0021   -0.0041    0.0020 C   0  0  1  0  0  0  0  0  0  0  0  0
   -1.0205   -0.3814    0.0098 H   0  0  0  0  0  0  0  0  0  0  0  0
    0.7182   -0.4975   -1.2568 C   0  0  0  0  0  0  0  0  0  0  0  0
   -0.1591    0.1034   -2.7264 S   0  0  0  0  0  0  0  0  0  0  0  0
    0.7114   -0.4960   -4.0012 N   0  0  0  0  0  0  0  0  0  0  0  0
   -1.4280   -0.5258   -2.8417 O   0  0  0  0  0  0  0  0  0  0  0  0
   -0.0272    1.5134   -2.8441 O   0  0  0  0  0  0  0  0  0  0  0  0
    0.7309   -0.5033    1.2229 C   0  0  0  0  0  0  0  0  0  0  0  0
    1.1912    0.2909    2.0254 O   0  0  0  0  0  0  0  0  0  0  0  0
    0.8604   -1.7014    1.4082 O   0  0  0  0  0  0  0  0  0  0  0  0
    0.9191    1.8392    0.0032 H   0  0  0  0  0  0  0  0  0  0  0  0
   -0.5563    1.8234   -0.7642 H   0  0  0  0  0  0  0  0  0  0  0  0
    1.7408   -0.1202   -1.2645 H   0  0  0  0  0  0  0  0  0  0  0  0
    0.7330   -1.5874   -1.2628 H   0  0  0  0  0  0  0  0  0  0  0  0
    1.4996   -1.0373   -3.8385 H   0  0  0  0  0  0  0  0  0  0  0  0
    0.4329   -0.3059   -4.9108 H   0  0  0  0  0  0  0  0  0  0  0  0
  1  2  1  0  0  0  0
  1 12  1  0  0  0  0
  1 13  1  0  0  0  0
  2  3  1  1  0  0  0
  2  4  1  0  0  0  0
  2  9  1  0  0  0  0
  4  5  1  0  0  0  0
  4 14  1  0  0  0  0
  4 15  1  0  0  0  0
  5  6  1  0  0  0  0
  5  7  2  0  0  0  0
  5  8  2  0  0  0  0
  6 16  1  0  0  0  0
  6 17  1  0  0  0  0
  9 10  2  0  0  0  0
  9 11  1  0  0  0  0
M  END
$$$$
ZINC000002043070
 OpenBabel11022112223D

 14 14  0  0  0  0  0  0  0  0999 V2000
   -0.0171    1.4081    0.0098 N   0  0  0  0  0  0  0  0  0  0  0  0
    0.0021   -0.0041    0.0020 C   0  0  0  0  0  0  0  0  0  0  0  0
   -1.1646   -0.7124    0.0037 C   0  0  0  0  0  0  0  0  0  0  0  0
   -2.3539   -0.0684    0.0123 O   0  0  0  0  0  0  0  0  0  0  0  0
   -1.1199   -2.0881   -0.0040 N   0  0  0  0  0  0  0  0  0  0  0  0
    0.0621   -2.7311   -0.0130 C   0  0  0  0  0  0  0  0  0  0  0  0
    0.0820   -3.9471   -0.0197 O   0  0  0  0  0  0  0  0  0  0  0  0
    1.2221   -2.0497   -0.0152 N   0  0  0  0  0  0  0  0  0  0  0  0
    1.2254   -0.7021   -0.0134 C   0  0  0  0  0  0  0  0  0  0  0  0
    2.7069    0.1559   -0.0168 S   0  0  0  0  0  0  0  0  0  0  0  0
    0.8163    1.9045    0.0045 H   0  0  0  0  0  0  0  0  0  0  0  0
   -0.8636    1.8816    0.0164 H   0  0  0  0  0  0  0  0  0  0  0  0
   -3.1204   -0.6579    0.0128 H   0  0  0  0  0  0  0  0  0  0  0  0
   -1.9456   -2.5972   -0.0025 H   0  0  0  0  0  0  0  0  0  0  0  0
  1  2  1  0  0  0  0
  1 11  1  0  0  0  0
  1 12  1  0  0  0  0
  2  9  1  0  0  0  0
  2  3  2  0  0  0  0
  3  4  1  0  0  0  0
  3  5  1  0  0  0  0
  4 13  1  0  0  0  0
  5  6  1  0  0  0  0
  5 14  1  0  0  0  0
  6  7  2  0  0  0  0
  6  8  1  0  0  0  0
  8  9  1  0  0  0  0
  9 10  2  0  0  0  0
M  END
$$$$
ZINC000005812665
 OpenBabel11022112223D

 22 22  0  0  1  0  0  0  0  0999 V2000
   -2.8848    1.5389   -2.3680 O   0  0  0  0  0  0  0  0  0  0  0  0
   -2.2206    1.1675   -1.1585 C   0  0  0  0  0  0  0  0  0  0  0  0
   -0.7527    1.5927   -1.2315 C   0  0  1  0  0  0  0  0  0  0  0  0
   -0.2958    1.1691   -2.1259 H   0  0  0  0  0  0  0  0  0  0  0  0
   -0.6718    3.0184   -1.2848 O   0  0  0  0  0  0  0  0  0  0  0  0
   -0.0127    1.0858    0.0080 C   0  0  2  0  0  0  0  0  0  0  0  0
    0.0021   -0.0041    0.0020 H   0  0  0  0  0  0  0  0  0  0  0  0
   -0.6816    1.5467    1.1837 O   0  0  0  0  0  0  0  0  0  0  0  0
    1.4227    1.6154   -0.0028 C   0  0  2  0  0  0  0  0  0  0  0  0
    1.4079    2.7053    0.0031 H   0  0  0  0  0  0  0  0  0  0  0  0
    2.0915    1.1546   -1.1786 O   0  0  0  0  0  0  0  0  0  0  0  0
    2.1515    1.1162    1.2180 C   0  0  0  0  0  0  0  0  0  0  0  0
    2.6048   -0.1124    1.4203 N   0  0  0  0  0  0  0  0  0  0  0  0
    3.1687   -0.1338    2.5796 N   0  0  0  0  0  0  0  0  0  0  0  0
    3.0768    1.0348    3.1124 N   0  0  0  0  0  0  0  0  0  0  0  0
    2.4575    1.8198    2.2984 N   0  0  0  0  0  0  0  0  0  0  0  0
   -3.8214    1.2996   -2.3919 H   0  0  0  0  0  0  0  0  0  0  0  0
   -2.2799    0.0869   -1.0285 H   0  0  0  0  0  0  0  0  0  0  0  0
   -2.7005    1.6620   -0.3139 H   0  0  0  0  0  0  0  0  0  0  0  0
   -1.0599    3.4633   -0.5190 H   0  0  0  0  0  0  0  0  0  0  0  0
   -0.7322    2.5097    1.2555 H   0  0  0  0  0  0  0  0  0  0  0  0
    2.1422    0.1915   -1.2503 H   0  0  0  0  0  0  0  0  0  0  0  0
  1  2  1  0  0  0  0
  1 17  1  0  0  0  0
  2  3  1  0  0  0  0
  2 18  1  0  0  0  0
  2 19  1  0  0  0  0
  3  4  1  6  0  0  0
  3  5  1  0  0  0  0
  3  6  1  0  0  0  0
  5 20  1  0  0  0  0
  6  7  1  6  0  0  0
  6  8  1  0  0  0  0
  6  9  1  0  0  0  0
  8 21  1  0  0  0  0
  9 10  1  1  0  0  0
  9 11  1  0  0  0  0
  9 12  1  0  0  0  0
 11 22  1  0  0  0  0
 12 16  1  0  0  0  0
 12 13  2  0  0  0  0
 13 14  1  0  0  0  0
 14 15  2  0  0  0  0
 15 16  1  0  0  0  0
M  END
$$$$
ZINC000079438259
 OpenBabel11022112223D

 23 23  0  0  1  0  0  0  0  0999 V2000
    2.4684    0.3879   -0.0688 C   0  0  0  0  0  0  0  0  0  0  0  0
    1.5493   -0.8061   -0.0923 C   0  0  0  0  0  0  0  0  0  0  0  0
    1.4732   -1.5320    0.8763 O   0  0  0  0  0  0  0  0  0  0  0  0
    0.8119   -1.0674   -1.1898 N   0  0  0  0  0  0  0  0  0  0  0  0
    0.9957   -0.2907   -2.4252 C   0  0  0  0  0  0  0  0  0  0  0  0
   -0.3742    0.2134   -2.8916 C   0  0  0  0  0  0  0  0  0  0  0  0
   -1.2983   -0.9229   -3.0039 N   0  0  0  0  0  0  0  0  0  0  0  0
   -1.5208   -1.5599   -1.6991 C   0  0  0  0  0  0  0  0  0  0  0  0
   -0.1936   -2.1408   -1.1858 C   0  0  2  0  0  0  0  0  0  0  0  0
    0.1269   -2.9533   -1.8377 H   0  0  0  0  0  0  0  0  0  0  0  0
   -0.3771   -2.6597    0.2171 C   0  0  0  0  0  0  0  0  0  0  0  0
   -0.2253   -3.8463    0.4529 O   0  0  0  0  0  0  0  0  0  0  0  0
   -0.6774   -1.8931    1.1163 O   0  0  0  0  0  0  0  0  0  0  0  0
    3.4187    0.1241   -0.5330 H   0  0  0  0  0  0  0  0  0  0  0  0
    2.0107    1.2096   -0.6195 H   0  0  0  0  0  0  0  0  0  0  0  0
    2.6406    0.6936    0.9632 H   0  0  0  0  0  0  0  0  0  0  0  0
    1.6512    0.5580   -2.2301 H   0  0  0  0  0  0  0  0  0  0  0  0
    1.4337   -0.9258   -3.1953 H   0  0  0  0  0  0  0  0  0  0  0  0
   -0.7640    0.9292   -2.1678 H   0  0  0  0  0  0  0  0  0  0  0  0
   -0.2723    0.6969   -3.8632 H   0  0  0  0  0  0  0  0  0  0  0  0
   -2.1719   -0.6385   -3.4211 H   0  0  0  0  0  0  0  0  0  0  0  0
   -1.8947   -0.8195   -0.9919 H   0  0  0  0  0  0  0  0  0  0  0  0
   -2.2505   -2.3625   -1.8058 H   0  0  0  0  0  0  0  0  0  0  0  0
  1  2  1  0  0  0  0
  1 14  1  0  0  0  0
  1 15  1  0  0  0  0
  1 16  1  0  0  0  0
  2  3  2  0  0  0  0
  2  4  1  0  0  0  0
  4  9  1  0  0  0  0
  4  5  1  0  0  0  0
  5  6  1  0  0  0  0
  5 17  1  0  0  0  0
  5 18  1  0  0  0  0
  6  7  1  0  0  0  0
  6 19  1  0  0  0  0
  6 20  1  0  0  0  0
  7  8  1  0  0  0  0
  7 21  1  0  0  0  0
  8  9  1  0  0  0  0
  8 22  1  0  0  0  0
  8 23  1  0  0  0  0
  9 10  1  6  0  0  0
  9 11  1  0  0  0  0
 11 12  2  0  0  0  0
 11 13  1  0  0  0  0
M  END
$$$$
ZINC000079438261
 OpenBabel11022112223D

 23 23  0  0  1  0  0  0  0  0999 V2000
   -2.0683    0.6756    0.2092 C   0  0  0  0  0  0  0  0  0  0  0  0
   -1.2790   -0.6029    0.0927 C   0  0  0  0  0  0  0  0  0  0  0  0
   -1.1206   -1.3086    1.0663 O   0  0  0  0  0  0  0  0  0  0  0  0
   -0.7490   -0.9620   -1.0933 N   0  0  0  0  0  0  0  0  0  0  0  0
   -1.0293   -0.1864   -2.3112 C   0  0  0  0  0  0  0  0  0  0  0  0
    0.3022    0.1509   -2.9906 C   0  0  0  0  0  0  0  0  0  0  0  0
    1.0666   -1.0853   -3.2036 N   0  0  0  0  0  0  0  0  0  0  0  0
    1.4108   -1.7256   -1.9271 C   0  0  0  0  0  0  0  0  0  0  0  0
    0.1297   -2.1363   -1.2029 C   0  0  1  0  0  0  0  0  0  0  0  0
   -0.3788   -2.9149   -1.7716 H   0  0  0  0  0  0  0  0  0  0  0  0
    0.4685   -2.6528    0.1716 C   0  0  0  0  0  0  0  0  0  0  0  0
    1.0199   -1.9235    0.9782 O   0  0  0  0  0  0  0  0  0  0  0  0
    0.1912   -3.8001    0.4772 O   0  0  0  0  0  0  0  0  0  0  0  0
   -1.3972    1.4947    0.4675 H   0  0  0  0  0  0  0  0  0  0  0  0
   -2.5544    0.8904   -0.7424 H   0  0  0  0  0  0  0  0  0  0  0  0
   -2.8243    0.5662    0.9868 H   0  0  0  0  0  0  0  0  0  0  0  0
   -1.6462   -0.7776   -2.9879 H   0  0  0  0  0  0  0  0  0  0  0  0
   -1.5493    0.7345   -2.0473 H   0  0  0  0  0  0  0  0  0  0  0  0
    0.1096    0.6295   -3.9508 H   0  0  0  0  0  0  0  0  0  0  0  0
    0.8739    0.8271   -2.3549 H   0  0  0  0  0  0  0  0  0  0  0  0
    0.5643   -1.7221   -3.8037 H   0  0  0  0  0  0  0  0  0  0  0  0
    2.0223   -2.6080   -2.1160 H   0  0  0  0  0  0  0  0  0  0  0  0
    1.9671   -1.0233   -1.3062 H   0  0  0  0  0  0  0  0  0  0  0  0
  1  2  1  0  0  0  0
  1 14  1  0  0  0  0
  1 15  1  0  0  0  0
  1 16  1  0  0  0  0
  2  3  2  0  0  0  0
  2  4  1  0  0  0  0
  4  9  1  0  0  0  0
  4  5  1  0  0  0  0
  5  6  1  0  0  0  0
  5 17  1  0  0  0  0
  5 18  1  0  0  0  0
  6  7  1  0  0  0  0
  6 19  1  0  0  0  0
  6 20  1  0  0  0  0
  7  8  1  0  0  0  0
  7 21  1  0  0  0  0
  8  9  1  0  0  0  0
  8 22  1  0  0  0  0
  8 23  1  0  0  0  0
  9 10  1  6  0  0  0
  9 11  1  0  0  0  0
 11 12  2  0  0  0  0
 11 13  1  0  0  0  0
M  END
$$$$
ZINC000100305210
 OpenBabel11022112223D

 18 18  0  0  1  0  0  0  0  0999 V2000
   -0.0178    1.4648    0.0101 N   0  0  0  0  0  0  0  0  0  0  0  0
    0.0021   -0.0041    0.0020 C   0  0  2  0  0  0  0  0  0  0  0  0
   -1.0205   -0.3814    0.0098 H   0  0  0  0  0  0  0  0  0  0  0  0
    0.7309   -0.5033    1.2229 C   0  0  0  0  0  0  0  0  0  0  0  0
    1.1912    0.2909    2.0254 O   0  0  0  0  0  0  0  0  0  0  0  0
    0.8604   -1.7014    1.4082 O   0  0  0  0  0  0  0  0  0  0  0  0
    0.7182   -0.4975   -1.2568 C   0  0  1  0  0  0  0  0  0  0  0  0
    0.2699   -0.0679   -2.1527 H   0  0  0  0  0  0  0  0  0  0  0  0
    2.1301   -0.2085   -1.1954 O   0  0  0  0  0  0  0  0  0  0  0  0
    2.7731   -1.3429   -0.6491 N   0  0  0  0  0  0  0  0  0  0  0  0
    2.0536   -2.3966   -0.6905 C   0  0  0  0  0  0  0  0  0  0  0  0
    2.5211   -3.9677   -0.1189 Cl  0  0  0  0  0  0  0  0  0  0  0  0
    0.7202   -2.0437   -1.3241 C   0  0  2  0  0  0  0  0  0  0  0  0
   -0.1053   -2.4578   -0.7450 H   0  0  0  0  0  0  0  0  0  0  0  0
    0.6655   -2.4975   -2.6780 O   0  0  0  0  0  0  0  0  0  0  0  0
    0.9191    1.8392    0.0032 H   0  0  0  0  0  0  0  0  0  0  0  0
   -0.5563    1.8234   -0.7642 H   0  0  0  0  0  0  0  0  0  0  0  0
    0.7482   -3.4560   -2.7752 H   0  0  0  0  0  0  0  0  0  0  0  0
  1  2  1  0  0  0  0
  1 16  1  0  0  0  0
  1 17  1  0  0  0  0
  2  3  1  1  0  0  0
  2  4  1  0  0  0  0
  2  7  1  0  0  0  0
  4  5  2  0  0  0  0
  4  6  1  0  0  0  0
  7  8  1  6  0  0  0
  7 13  1  0  0  0  0
  7  9  1  0  0  0  0
  9 10  1  0  0  0  0
 10 11  2  0  0  0  0
 11 12  1  0  0  0  0
 11 13  1  0  0  0  0
 13 14  1  1  0  0  0
 13 15  1  0  0  0  0
 15 18  1  0  0  0  0
M  END
$$$$
ZINC000100305207
 OpenBabel11022112223D

 18 18  0  0  1  0  0  0  0  0999 V2000
    0.6179   -0.6252    1.1822 N   0  0  0  0  0  0  0  0  0  0  0  0
    0.0021   -0.0041    0.0020 C   0  0  2  0  0  0  0  0  0  0  0  0
    0.0129    1.0800    0.1146 H   0  0  0  0  0  0  0  0  0  0  0  0
   -1.4212   -0.4810   -0.1316 C   0  0  0  0  0  0  0  0  0  0  0  0
   -1.8800   -1.2656    0.6811 O   0  0  0  0  0  0  0  0  0  0  0  0
   -2.1139   -0.0823   -1.0523 O   0  0  0  0  0  0  0  0  0  0  0  0
    0.7904   -0.3947   -1.2497 C   0  0  2  0  0  0  0  0  0  0  0  0
    0.7579   -1.4725   -1.4090 H   0  0  0  0  0  0  0  0  0  0  0  0
    2.1519    0.0757   -1.1712 O   0  0  0  0  0  0  0  0  0  0  0  0
    2.5389    0.4766   -2.4705 N   0  0  0  0  0  0  0  0  0  0  0  0
    1.5488    0.6605   -3.2552 C   0  0  0  0  0  0  0  0  0  0  0  0
    1.6483    1.1619   -4.9143 Cl  0  0  0  0  0  0  0  0  0  0  0  0
    0.2701    0.3660   -2.4931 C   0  0  2  0  0  0  0  0  0  0  0  0
   -0.3958   -0.2639   -3.0829 H   0  0  0  0  0  0  0  0  0  0  0  0
   -0.3851    1.5778   -2.1134 O   0  0  0  0  0  0  0  0  0  0  0  0
    0.7030   -1.6234    1.0626 H   0  0  0  0  0  0  0  0  0  0  0  0
    1.5139   -0.2076    1.3845 H   0  0  0  0  0  0  0  0  0  0  0  0
   -0.6549    2.1298   -2.8602 H   0  0  0  0  0  0  0  0  0  0  0  0
  1  2  1  0  0  0  0
  1 16  1  0  0  0  0
  1 17  1  0  0  0  0
  2  3  1  1  0  0  0
  2  4  1  0  0  0  0
  2  7  1  0  0  0  0
  4  5  2  0  0  0  0
  4  6  1  0  0  0  0
  7  8  1  6  0  0  0
  7 13  1  0  0  0  0
  7  9  1  0  0  0  0
  9 10  1  0  0  0  0
 10 11  2  0  0  0  0
 11 12  1  0  0  0  0
 11 13  1  0  0  0  0
 13 14  1  6  0  0  0
 13 15  1  0  0  0  0
 15 18  1  0  0  0  0
M  END
$$$$
ZINC000006072510
 OpenBabel11022112223D

 18 18  0  0  1  0  0  0  0  0999 V2000
   -1.4261   -0.2974    0.1811 N   0  0  0  0  0  0  0  0  0  0  0  0
    0.0021   -0.0041    0.0020 C   0  0  2  0  0  0  0  0  0  0  0  0
    0.5785   -0.5240    0.7672 H   0  0  0  0  0  0  0  0  0  0  0  0
    0.2291    1.4807    0.1243 C   0  0  0  0  0  0  0  0  0  0  0  0
   -0.7122    2.2506    0.0361 O   0  0  0  0  0  0  0  0  0  0  0  0
    1.3540    1.9120    0.3114 O   0  0  0  0  0  0  0  0  0  0  0  0
    0.4500   -0.4761   -1.3827 C   0  0  1  0  0  0  0  0  0  0  0  0
   -0.1161    0.0268   -2.1667 H   0  0  0  0  0  0  0  0  0  0  0  0
    1.8679   -0.2808   -1.5621 O   0  0  0  0  0  0  0  0  0  0  0  0
    2.3563   -1.3746   -2.3130 N   0  0  0  0  0  0  0  0  0  0  0  0
    1.5590   -2.3717   -2.3248 C   0  0  0  0  0  0  0  0  0  0  0  0
    1.8344   -3.8817   -3.1359 Cl  0  0  0  0  0  0  0  0  0  0  0  0
    0.3295   -2.0138   -1.5106 C   0  0  1  0  0  0  0  0  0  0  0  0
   -0.5810   -2.2889   -2.0431 H   0  0  0  0  0  0  0  0  0  0  0  0
    0.3719   -2.6382   -0.2259 O   0  0  0  0  0  0  0  0  0  0  0  0
   -1.9823    0.1734   -0.5168 H   0  0  0  0  0  0  0  0  0  0  0  0
   -1.5954   -1.2921    0.1677 H   0  0  0  0  0  0  0  0  0  0  0  0
    0.3837   -3.6045   -0.2585 H   0  0  0  0  0  0  0  0  0  0  0  0
  1  2  1  0  0  0  0
  1 16  1  0  0  0  0
  1 17  1  0  0  0  0
  2  3  1  1  0  0  0
  2  4  1  0  0  0  0
  2  7  1  0  0  0  0
  4  5  2  0  0  0  0
  4  6  1  0  0  0  0
  7  8  1  6  0  0  0
  7 13  1  0  0  0  0
  7  9  1  0  0  0  0
  9 10  1  0  0  0  0
 10 11  2  0  0  0  0
 11 12  1  0  0  0  0
 11 13  1  0  0  0  0
 13 14  1  6  0  0  0
 13 15  1  0  0  0  0
 15 18  1  0  0  0  0
M  END
$$$$
ZINC000079438265
 OpenBabel11022112223D

 23 23  0  0  1  0  0  0  0  0999 V2000
    0.0336   -0.7637    1.3032 C   0  0  0  0  0  0  0  0  0  0  0  0
    0.0021   -0.0041    0.0020 C   0  0  0  0  0  0  0  0  0  0  0  0
   -0.1130    1.2033    0.0073 O   0  0  0  0  0  0  0  0  0  0  0  0
    0.1018   -0.6664   -1.1675 N   0  0  0  0  0  0  0  0  0  0  0  0
    0.1977    0.0619   -2.4417 C   0  0  0  0  0  0  0  0  0  0  0  0
   -0.8561   -0.4981   -3.4030 C   0  0  0  0  0  0  0  0  0  0  0  0
   -0.6952   -1.9546   -3.5065 N   0  0  0  0  0  0  0  0  0  0  0  0
   -0.9332   -2.6101   -2.2136 C   0  0  1  0  0  0  0  0  0  0  0  0
   -1.9282   -2.3508   -1.8519 H   0  0  0  0  0  0  0  0  0  0  0  0
   -0.8328   -4.1044   -2.3814 C   0  0  0  0  0  0  0  0  0  0  0  0
   -0.4095   -4.5737   -3.4240 O   0  0  0  0  0  0  0  0  0  0  0  0
   -1.1748   -4.8440   -1.4744 O   0  0  0  0  0  0  0  0  0  0  0  0
    0.1236   -2.1366   -1.2030 C   0  0  0  0  0  0  0  0  0  0  0  0
   -0.9862   -0.9712    1.6275 H   0  0  0  0  0  0  0  0  0  0  0  0
    0.5684   -1.7030    1.1627 H   0  0  0  0  0  0  0  0  0  0  0  0
    0.5413   -0.1663    2.0605 H   0  0  0  0  0  0  0  0  0  0  0  0
    0.0118    1.1225   -2.2722 H   0  0  0  0  0  0  0  0  0  0  0  0
    1.1915   -0.0750   -2.8678 H   0  0  0  0  0  0  0  0  0  0  0  0
   -1.8522   -0.2681   -3.0248 H   0  0  0  0  0  0  0  0  0  0  0  0
   -0.7272   -0.0471   -4.3870 H   0  0  0  0  0  0  0  0  0  0  0  0
   -1.2974   -2.3351   -4.2211 H   0  0  0  0  0  0  0  0  0  0  0  0
    1.1085   -2.4867   -1.5121 H   0  0  0  0  0  0  0  0  0  0  0  0
   -0.1138   -2.5287   -0.2141 H   0  0  0  0  0  0  0  0  0  0  0  0
  1  2  1  0  0  0  0
  1 14  1  0  0  0  0
  1 15  1  0  0  0  0
  1 16  1  0  0  0  0
  2  3  2  0  0  0  0
  2  4  1  0  0  0  0
  4 13  1  0  0  0  0
  4  5  1  0  0  0  0
  5  6  1  0  0  0  0
  5 17  1  0  0  0  0
  5 18  1  0  0  0  0
  6  7  1  0  0  0  0
  6 19  1  0  0  0  0
  6 20  1  0  0  0  0
  7  8  1  0  0  0  0
  7 21  1  0  0  0  0
  8  9  1  1  0  0  0
  8 10  1  0  0  0  0
  8 13  1  0  0  0  0
 10 11  2  0  0  0  0
 10 12  1  0  0  0  0
 13 22  1  0  0  0  0
 13 23  1  0  0  0  0
M  END
$$$$
ZINC000079438262
 OpenBabel11022112223D

 23 23  0  0  1  0  0  0  0  0999 V2000
   -0.0184    1.5028    0.0103 C   0  0  0  0  0  0  0  0  0  0  0  0
    0.0021   -0.0041    0.0020 C   0  0  0  0  0  0  0  0  0  0  0  0
    0.0203   -0.6160    1.0489 O   0  0  0  0  0  0  0  0  0  0  0  0
    0.0001   -0.6716   -1.1688 N   0  0  0  0  0  0  0  0  0  0  0  0
   -0.0158    0.0510   -2.4498 C   0  0  0  0  0  0  0  0  0  0  0  0
    1.1153   -0.4925   -3.3293 C   0  0  0  0  0  0  0  0  0  0  0  0
    0.9887   -1.9519   -3.4378 N   0  0  0  0  0  0  0  0  0  0  0  0
    1.1436   -2.5991   -2.1282 C   0  0  2  0  0  0  0  0  0  0  0  0
    2.1047   -2.3205   -1.6961 H   0  0  0  0  0  0  0  0  0  0  0  0
    1.0827   -4.0955   -2.2964 C   0  0  0  0  0  0  0  0  0  0  0  0
    0.9249   -4.5784   -3.4047 O   0  0  0  0  0  0  0  0  0  0  0  0
    1.1912   -4.8231   -1.3242 O   0  0  0  0  0  0  0  0  0  0  0  0
    0.0198   -2.1420   -1.1995 C   0  0  0  0  0  0  0  0  0  0  0  0
    1.0042    1.8801    0.0026 H   0  0  0  0  0  0  0  0  0  0  0  0
   -0.5455    1.8639   -0.8728 H   0  0  0  0  0  0  0  0  0  0  0  0
   -0.5286    1.8543    0.9071 H   0  0  0  0  0  0  0  0  0  0  0  0
   -0.9733   -0.1054   -2.9466 H   0  0  0  0  0  0  0  0  0  0  0  0
    0.1380    1.1153   -2.2717 H   0  0  0  0  0  0  0  0  0  0  0  0
    1.0503   -0.0469   -4.3219 H   0  0  0  0  0  0  0  0  0  0  0  0
    2.0768   -0.2431   -2.8805 H   0  0  0  0  0  0  0  0  0  0  0  0
    0.1118   -2.2080   -3.8663 H   0  0  0  0  0  0  0  0  0  0  0  0
    0.1945   -2.5284   -0.1954 H   0  0  0  0  0  0  0  0  0  0  0  0
   -0.9363   -2.5073   -1.5743 H   0  0  0  0  0  0  0  0  0  0  0  0
  1  2  1  0  0  0  0
  1 14  1  0  0  0  0
  1 15  1  0  0  0  0
  1 16  1  0  0  0  0
  2  3  2  0  0  0  0
  2  4  1  0  0  0  0
  4 13  1  0  0  0  0
  4  5  1  0  0  0  0
  5  6  1  0  0  0  0
  5 17  1  0  0  0  0
  5 18  1  0  0  0  0
  6  7  1  0  0  0  0
  6 19  1  0  0  0  0
  6 20  1  0  0  0  0
  7  8  1  0  0  0  0
  7 21  1  0  0  0  0
  8  9  1  1  0  0  0
  8 10  1  0  0  0  0
  8 13  1  0  0  0  0
 10 11  2  0  0  0  0
 10 12  1  0  0  0  0
 13 22  1  0  0  0  0
 13 23  1  0  0  0  0
M  END
$$$$
ZINC000002022602
 OpenBabel11022112223D

 20 19  0  0  1  0  0  0  0  0999 V2000
   -0.0178    1.4648    0.0101 N   0  0  0  0  0  0  0  0  0  0  0  0
    0.0021   -0.0041    0.0020 C   0  0  2  0  0  0  0  0  0  0  0  0
   -1.0205   -0.3814    0.0098 H   0  0  0  0  0  0  0  0  0  0  0  0
    0.7421   -0.5109    1.2415 C   0  0  0  0  0  0  0  0  0  0  0  0
    0.0101   -0.1492    2.4144 O   0  0  0  0  0  0  0  0  0  0  0  0
    0.7074   -0.4901   -1.2379 C   0  0  0  0  0  0  0  0  0  0  0  0
    1.4532    0.2518   -1.8415 O   0  0  0  0  0  0  0  0  0  0  0  0
    0.5096   -1.7492   -1.6760 N   0  0  0  0  0  0  0  0  0  0  0  0
    1.1953   -2.2216   -2.8813 C   0  0  0  0  0  0  0  0  0  0  0  0
    0.8056   -3.6518   -3.1530 C   0  0  0  0  0  0  0  0  0  0  0  0
    0.0272   -4.2234   -2.4088 O   0  0  0  0  0  0  0  0  0  0  0  0
    1.2686   -4.2372   -4.1170 O   0  0  0  0  0  0  0  0  0  0  0  0
    0.9191    1.8392    0.0032 H   0  0  0  0  0  0  0  0  0  0  0  0
   -0.5563    1.8234   -0.7642 H   0  0  0  0  0  0  0  0  0  0  0  0
    0.8346   -1.5958    1.1912 H   0  0  0  0  0  0  0  0  0  0  0  0
    1.7350   -0.0630    1.2804 H   0  0  0  0  0  0  0  0  0  0  0  0
    0.4218   -0.4391    3.2399 H   0  0  0  0  0  0  0  0  0  0  0  0
   -0.0869   -2.3426   -1.1932 H   0  0  0  0  0  0  0  0  0  0  0  0
    0.9091   -1.5997   -3.7295 H   0  0  0  0  0  0  0  0  0  0  0  0
    2.2735   -2.1607   -2.7334 H   0  0  0  0  0  0  0  0  0  0  0  0
  1  2  1  0  0  0  0
  1 13  1  0  0  0  0
  1 14  1  0  0  0  0
  2  3  1  1  0  0  0
  2  4  1  0  0  0  0
  2  6  1  0  0  0  0
  4  5  1  0  0  0  0
  4 15  1  0  0  0  0
  4 16  1  0  0  0  0
  5 17  1  0  0  0  0
  6  7  2  0  0  0  0
  6  8  1  0  0  0  0
  8  9  1  0  0  0  0
  8 18  1  0  0  0  0
  9 10  1  0  0  0  0
  9 19  1  0  0  0  0
  9 20  1  0  0  0  0
 10 11  2  0  0  0  0
 10 12  1  0  0  0  0
M  END
$$$$
ZINC000004972904
 OpenBabel11022112223D

 17 16  0  0  1  0  0  0  0  0999 V2000
   -0.0178    1.4648    0.0101 N   0  0  0  0  0  0  0  0  0  0  0  0
    0.0021   -0.0041    0.0020 C   0  0  2  0  0  0  0  0  0  0  0  0
   -1.0205   -0.3814    0.0098 H   0  0  0  0  0  0  0  0  0  0  0  0
    0.7421   -0.5109    1.2415 C   0  0  0  0  0  0  0  0  0  0  0  0
   -0.1871   -0.0517    2.7303 S   0  0  0  0  0  0  0  0  0  0  0  0
    0.7143   -0.6541    3.9821 N   0  0  0  0  0  0  0  0  0  0  0  0
   -0.1571    1.3559    2.9225 O   0  0  0  0  0  0  0  0  0  0  0  0
   -1.4086   -0.7746    2.7985 O   0  0  0  0  0  0  0  0  0  0  0  0
    0.7074   -0.4901   -1.2379 C   0  0  0  0  0  0  0  0  0  0  0  0
    1.3095    0.2992   -1.9457 O   0  0  0  0  0  0  0  0  0  0  0  0
    0.6760   -1.6726   -1.5332 O   0  0  0  0  0  0  0  0  0  0  0  0
    0.9191    1.8392    0.0032 H   0  0  0  0  0  0  0  0  0  0  0  0
   -0.5563    1.8234   -0.7642 H   0  0  0  0  0  0  0  0  0  0  0  0
    0.8346   -1.5958    1.1912 H   0  0  0  0  0  0  0  0  0  0  0  0
    1.7350   -0.0630    1.2804 H   0  0  0  0  0  0  0  0  0  0  0  0
    1.5405   -1.1288    3.8004 H   0  0  0  0  0  0  0  0  0  0  0  0
    0.4162   -0.5322    4.8971 H   0  0  0  0  0  0  0  0  0  0  0  0
  1  2  1  0  0  0  0
  1 12  1  0  0  0  0
  1 13  1  0  0  0  0
  2  3  1  1  0  0  0
  2  4  1  0  0  0  0
  2  9  1  0  0  0  0
  4  5  1  0  0  0  0
  4 14  1  0  0  0  0
  4 15  1  0  0  0  0
  5  6  1  0  0  0  0
  5  7  2  0  0  0  0
  5  8  2  0  0  0  0
  6 16  1  0  0  0  0
  6 17  1  0  0  0  0
  9 10  2  0  0  0  0
  9 11  1  0  0  0  0
M  END
$$$$
ZINC000001683502
 OpenBabel11022112223D

 14 14  0  0  0  0  0  0  0  0999 V2000
   -0.0171    1.4081    0.0098 N   0  0  0  0  0  0  0  0  0  0  0  0
    0.0021   -0.0041    0.0020 C   0  0  0  0  0  0  0  0  0  0  0  0
   -1.1646   -0.7124    0.0037 C   0  0  0  0  0  0  0  0  0  0  0  0
   -2.3539   -0.0684    0.0123 O   0  0  0  0  0  0  0  0  0  0  0  0
   -1.1199   -2.0881   -0.0040 N   0  0  0  0  0  0  0  0  0  0  0  0
    0.0621   -2.7311   -0.0130 C   0  0  0  0  0  0  0  0  0  0  0  0
    0.0820   -3.9471   -0.0197 O   0  0  0  0  0  0  0  0  0  0  0  0
    1.2221   -2.0497   -0.0152 N   0  0  0  0  0  0  0  0  0  0  0  0
    1.2254   -0.7021   -0.0134 C   0  0  0  0  0  0  0  0  0  0  0  0
    2.7069    0.1559   -0.0168 S   0  0  0  0  0  0  0  0  0  0  0  0
    0.8163    1.9045    0.0045 H   0  0  0  0  0  0  0  0  0  0  0  0
   -0.8636    1.8816    0.0164 H   0  0  0  0  0  0  0  0  0  0  0  0
   -3.1204   -0.6579    0.0128 H   0  0  0  0  0  0  0  0  0  0  0  0
   -1.9456   -2.5972   -0.0025 H   0  0  0  0  0  0  0  0  0  0  0  0
  1  2  1  0  0  0  0
  1 11  1  0  0  0  0
  1 12  1  0  0  0  0
  2  9  1  0  0  0  0
  2  3  2  0  0  0  0
  3  4  1  0  0  0  0
  3  5  1  0  0  0  0
  4 13  1  0  0  0  0
  5  6  1  0  0  0  0
  5 14  1  0  0  0  0
  6  7  2  0  0  0  0
  6  8  1  0  0  0  0
  8  9  1  0  0  0  0
  9 10  2  0  0  0  0
M  END
$$$$
ZINC000001566431
 OpenBabel11022112223D

 17 17  0  0  0  0  0  0  0  0999 V2000
    1.1920    1.4290   -1.6857 C   0  0  0  0  0  0  0  0  0  0  0  0
    1.1282   -0.0728   -1.5794 C   0  0  0  0  0  0  0  0  0  0  0  0
    2.0960   -0.7426   -1.8694 O   0  0  0  0  0  0  0  0  0  0  0  0
    0.0001   -0.6687   -1.1637 O   0  0  0  0  0  0  0  0  0  0  0  0
   -0.0278   -2.0296   -1.1947 C   0  0  0  0  0  0  0  0  0  0  0  0
   -0.0930   -2.7410   -0.0459 C   0  0  0  0  0  0  0  0  0  0  0  0
   -0.1207   -4.1112   -0.0980 N   0  0  0  0  0  0  0  0  0  0  0  0
   -0.0836   -4.7530   -1.2797 C   0  0  0  0  0  0  0  0  0  0  0  0
   -0.1096   -5.9686   -1.3019 O   0  0  0  0  0  0  0  0  0  0  0  0
   -0.0186   -4.0706   -2.4378 N   0  0  0  0  0  0  0  0  0  0  0  0
    0.0052   -2.7225   -2.4333 C   0  0  0  0  0  0  0  0  0  0  0  0
    0.0635   -2.1053   -3.4815 O   0  0  0  0  0  0  0  0  0  0  0  0
    0.8782    1.7364   -2.6832 H   0  0  0  0  0  0  0  0  0  0  0  0
    0.5298    1.8743   -0.9432 H   0  0  0  0  0  0  0  0  0  0  0  0
    2.2143    1.7628   -1.5074 H   0  0  0  0  0  0  0  0  0  0  0  0
   -0.1228   -2.2330    0.9067 H   0  0  0  0  0  0  0  0  0  0  0  0
   -0.1671   -4.6225    0.7250 H   0  0  0  0  0  0  0  0  0  0  0  0
  1  2  1  0  0  0  0
  1 13  1  0  0  0  0
  1 14  1  0  0  0  0
  1 15  1  0  0  0  0
  2  3  2  0  0  0  0
  2  4  1  0  0  0  0
  4  5  1  0  0  0  0
  5 11  1  0  0  0  0
  5  6  2  0  0  0  0
  6  7  1  0  0  0  0
  6 16  1  0  0  0  0
  7  8  1  0  0  0  0
  7 17  1  0  0  0  0
  8  9  2  0  0  0  0
  8 10  1  0  0  0  0
 10 11  1  0  0  0  0
 11 12  2  0  0  0  0
M  END
$$$$
ZINC000217960871
 OpenBabel11022112223D

 19 19  0  0  1  0  0  0  0  0999 V2000
   -0.0225    1.8097    0.0120 C   0  0  0  0  0  0  0  0  0  0  0  0
    0.0021   -0.0041    0.0020 S   0  0  0  0  0  0  0  0  0  0  0  0
    0.8010   -0.4520    1.0884 O   0  0  0  0  0  0  0  0  0  0  0  0
   -1.3336   -0.4743   -0.1172 O   0  0  0  0  0  0  0  0  0  0  0  0
    0.8798   -0.3584   -1.5454 C   0  0  2  0  0  0  0  0  0  0  0  0
    1.7180    0.3005   -1.7720 H   0  0  0  0  0  0  0  0  0  0  0  0
    0.0537   -0.8808   -2.7225 C   0  0  0  0  0  0  0  0  0  0  0  0
    0.9975   -1.8232   -1.9714 C   0  0  2  0  0  0  0  0  0  0  0  0
    0.3907   -2.8350   -1.0962 N   0  0  0  0  0  0  0  0  0  0  0  0
    2.2632   -2.2446   -2.6725 C   0  0  0  0  0  0  0  0  0  0  0  0
    2.5814   -1.7178   -3.7250 O   0  0  0  0  0  0  0  0  0  0  0  0
    2.9690   -3.1122   -2.1871 O   0  0  0  0  0  0  0  0  0  0  0  0
    1.0001    2.1870    0.0043 H   0  0  0  0  0  0  0  0  0  0  0  0
   -0.5497    2.1708   -0.8711 H   0  0  0  0  0  0  0  0  0  0  0  0
   -0.5327    2.1613    0.9088 H   0  0  0  0  0  0  0  0  0  0  0  0
   -1.0172   -1.0115   -2.5671 H   0  0  0  0  0  0  0  0  0  0  0  0
    0.3486   -0.5658   -3.7235 H   0  0  0  0  0  0  0  0  0  0  0  0
    0.5256   -3.7630   -1.4687 H   0  0  0  0  0  0  0  0  0  0  0  0
    0.7540   -2.7659   -0.1574 H   0  0  0  0  0  0  0  0  0  0  0  0
  1  2  1  0  0  0  0
  1 13  1  0  0  0  0
  1 14  1  0  0  0  0
  1 15  1  0  0  0  0
  2  3  2  0  0  0  0
  2  4  2  0  0  0  0
  2  5  1  0  0  0  0
  5  6  1  6  0  0  0
  5  8  1  0  0  0  0
  5  7  1  0  0  0  0
  7  8  1  0  0  0  0
  7 16  1  0  0  0  0
  7 17  1  0  0  0  0
  8  9  1  1  0  0  0
  8 10  1  0  0  0  0
  9 18  1  0  0  0  0
  9 19  1  0  0  0  0
 10 11  2  0  0  0  0
 10 12  1  0  0  0  0
M  END
$$$$
ZINC000225971883
 OpenBabel11022112223D

 17 17  0  0  0  0  0  0  0  0999 V2000
   -0.0225    1.8097    0.0120 C   0  0  0  0  0  0  0  0  0  0  0  0
    0.0021   -0.0041    0.0020 S   0  0  0  0  0  0  0  0  0  0  0  0
    0.8448   -0.4970    1.0346 O   0  0  0  0  0  0  0  0  0  0  0  0
   -1.3093   -0.5195   -0.1821 O   0  0  0  0  0  0  0  0  0  0  0  0
    0.7961   -0.3989   -1.3965 N   0  0  0  0  0  0  0  0  0  0  0  0
    0.9965   -1.7268   -1.7267 C   0  0  0  0  0  0  0  0  0  0  0  0
    0.6031   -2.7670   -1.0227 N   0  0  0  0  0  0  0  0  0  0  0  0
    0.9679   -3.8942   -1.6435 C   0  0  0  0  0  0  0  0  0  0  0  0
    0.7177   -5.1891   -1.1868 N   0  0  0  0  0  0  0  0  0  0  0  0
    1.5982   -3.5855   -2.7508 N   0  0  0  0  0  0  0  0  0  0  0  0
    1.6244   -2.1838   -2.8300 N   0  0  0  0  0  0  0  0  0  0  0  0
    1.0001    2.1870    0.0043 H   0  0  0  0  0  0  0  0  0  0  0  0
   -0.5497    2.1708   -0.8711 H   0  0  0  0  0  0  0  0  0  0  0  0
   -0.5327    2.1613    0.9088 H   0  0  0  0  0  0  0  0  0  0  0  0
    0.2417   -5.3257   -0.3527 H   0  0  0  0  0  0  0  0  0  0  0  0
    1.0198   -5.9524   -1.7035 H   0  0  0  0  0  0  0  0  0  0  0  0
    2.0214   -1.6494   -3.5355 H   0  0  0  0  0  0  0  0  0  0  0  0
  1  2  1  0  0  0  0
  1 12  1  0  0  0  0
  1 13  1  0  0  0  0
  1 14  1  0  0  0  0
  2  3  2  0  0  0  0
  2  4  2  0  0  0  0
  2  5  1  0  0  0  0
  5  6  1  0  0  0  0
  6 11  1  0  0  0  0
  6  7  2  0  0  0  0
  7  8  1  0  0  0  0
  8  9  1  0  0  0  0
  8 10  2  0  0  0  0
  9 15  1  0  0  0  0
  9 16  1  0  0  0  0
 10 11  1  0  0  0  0
 11 17  1  0  0  0  0
M  END
$$$$
ZINC000217961028
 OpenBabel11022112223D

 19 19  0  0  1  0  0  0  0  0999 V2000
   -0.0225    1.8097    0.0120 C   0  0  0  0  0  0  0  0  0  0  0  0
    0.0021   -0.0041    0.0020 S   0  0  0  0  0  0  0  0  0  0  0  0
    0.8010   -0.4520    1.0884 O   0  0  0  0  0  0  0  0  0  0  0  0
   -1.3336   -0.4743   -0.1172 O   0  0  0  0  0  0  0  0  0  0  0  0
    0.8798   -0.3584   -1.5454 C   0  0  2  0  0  0  0  0  0  0  0  0
    1.7180    0.3005   -1.7720 H   0  0  0  0  0  0  0  0  0  0  0  0
    0.0537   -0.8808   -2.7225 C   0  0  0  0  0  0  0  0  0  0  0  0
    0.9975   -1.8232   -1.9714 C   0  0  1  0  0  0  0  0  0  0  0  0
    2.2313   -2.2339   -2.6548 N   0  0  0  0  0  0  0  0  0  0  0  0
    0.3750   -2.8612   -1.0736 C   0  0  0  0  0  0  0  0  0  0  0  0
    1.0682   -3.7330   -0.5776 O   0  0  0  0  0  0  0  0  0  0  0  0
   -0.8218   -2.8293   -0.8432 O   0  0  0  0  0  0  0  0  0  0  0  0
    1.0001    2.1870    0.0043 H   0  0  0  0  0  0  0  0  0  0  0  0
   -0.5497    2.1708   -0.8711 H   0  0  0  0  0  0  0  0  0  0  0  0
   -0.5327    2.1613    0.9088 H   0  0  0  0  0  0  0  0  0  0  0  0
   -1.0172   -1.0115   -2.5671 H   0  0  0  0  0  0  0  0  0  0  0  0
    0.3486   -0.5658   -3.7235 H   0  0  0  0  0  0  0  0  0  0  0  0
    2.2047   -3.2146   -2.8906 H   0  0  0  0  0  0  0  0  0  0  0  0
    2.3957   -1.6693   -3.4746 H   0  0  0  0  0  0  0  0  0  0  0  0
  1  2  1  0  0  0  0
  1 13  1  0  0  0  0
  1 14  1  0  0  0  0
  1 15  1  0  0  0  0
  2  3  2  0  0  0  0
  2  4  2  0  0  0  0
  2  5  1  0  0  0  0
  5  6  1  6  0  0  0
  5  8  1  0  0  0  0
  5  7  1  0  0  0  0
  7  8  1  0  0  0  0
  7 16  1  0  0  0  0
  7 17  1  0  0  0  0
  8  9  1  6  0  0  0
  8 10  1  0  0  0  0
  9 18  1  0  0  0  0
  9 19  1  0  0  0  0
 10 11  2  0  0  0  0
 10 12  1  0  0  0  0
M  END
$$$$
ZINC000001694469
 OpenBabel11022112223D

 26 25  0  0  1  0  0  0  0  0999 V2000
   -0.0187    1.5258    0.0104 C   0  0  0  0  0  0  0  0  0  0  0  0
    0.0021   -0.0041    0.0020 C   0  0  0  0  0  0  0  0  0  0  0  0
    0.7421   -0.5109    1.2415 C   0  0  0  0  0  0  0  0  0  0  0  0
   -1.4333   -0.5336    0.0129 C   0  0  2  0  0  0  0  0  0  0  0  0
   -1.4185   -1.6235    0.0069 H   0  0  0  0  0  0  0  0  0  0  0  0
   -2.1438   -0.0470   -1.1772 N   0  0  0  0  0  0  0  0  0  0  0  0
   -2.1387   -0.0476    1.2528 C   0  0  0  0  0  0  0  0  0  0  0  0
   -2.7455    1.0097    1.2340 O   0  0  0  0  0  0  0  0  0  0  0  0
   -2.1025   -0.7118    2.2746 O   0  0  0  0  0  0  0  0  0  0  0  0
    0.7182   -0.4975   -1.2568 C   0  0  2  0  0  0  0  0  0  0  0  0
    0.1910   -0.1364   -2.1398 H   0  0  0  0  0  0  0  0  0  0  0  0
    0.7381   -1.9663   -1.2649 N   0  3  0  0  0  0  0  0  0  0  0  0
    1.2104   -2.2917   -2.0950 H   0  0  0  0  0  0  0  0  0  0  0  0
    1.2261   -2.3006   -0.4474 H   0  0  0  0  0  0  0  0  0  0  0  0
   -0.2085   -2.3156   -1.2577 H   0  0  0  0  0  0  0  0  0  0  0  0
    2.1320    0.0241   -1.2675 C   0  0  0  0  0  0  0  0  0  0  0  0
    3.0254   -0.6256   -0.7515 O   0  0  0  0  0  0  0  0  0  0  0  0
    2.3824    1.0959   -1.7921 O   0  0  0  0  0  0  0  0  0  0  0  0
    1.0039    1.9031    0.0027 H   0  0  0  0  0  0  0  0  0  0  0  0
   -0.5459    1.8868   -0.8726 H   0  0  0  0  0  0  0  0  0  0  0  0
   -0.5289    1.8773    0.9072 H   0  0  0  0  0  0  0  0  0  0  0  0
    0.2319   -0.1594    2.1383 H   0  0  0  0  0  0  0  0  0  0  0  0
    0.7568   -1.6008    1.2356 H   0  0  0  0  0  0  0  0  0  0  0  0
    1.7647   -0.1336    1.2338 H   0  0  0  0  0  0  0  0  0  0  0  0
   -3.0739   -0.4349   -1.2269 H   0  0  0  0  0  0  0  0  0  0  0  0
   -2.1712    0.9615   -1.1949 H   0  0  0  0  0  0  0  0  0  0  0  0
  1  2  1  0  0  0  0
  1 19  1  0  0  0  0
  1 20  1  0  0  0  0
  1 21  1  0  0  0  0
  2  3  1  0  0  0  0
  2  4  1  0  0  0  0
  2 10  1  0  0  0  0
  3 22  1  0  0  0  0
  3 23  1  0  0  0  0
  3 24  1  0  0  0  0
  4  5  1  6  0  0  0
  4  6  1  0  0  0  0
  4  7  1  0  0  0  0
  6 25  1  0  0  0  0
  6 26  1  0  0  0  0
  7  8  2  0  0  0  0
  7  9  1  0  0  0  0
 10 11  1  6  0  0  0
 10 12  1  0  0  0  0
 10 16  1  0  0  0  0
 12 13  1  0  0  0  0
 12 14  1  0  0  0  0
 12 15  1  0  0  0  0
 16 17  2  0  0  0  0
 16 18  1  0  0  0  0
M  CHG  1  12   1
M  END
$$$$
ZINC000001694470
 OpenBabel11022112223D

 26 25  0  0  1  0  0  0  0  0999 V2000
    0.3489    1.4170   -0.0117 C   0  0  0  0  0  0  0  0  0  0  0  0
   -0.0002   -0.0702    0.0743 C   0  0  0  0  0  0  0  0  0  0  0  0
    0.5000   -0.6354    1.4052 C   0  0  0  0  0  0  0  0  0  0  0  0
   -1.5177   -0.2438   -0.0153 C   0  0  1  0  0  0  0  0  0  0  0  0
   -1.8858    0.2392   -0.9205 H   0  0  0  0  0  0  0  0  0  0  0  0
   -1.8452   -1.6752   -0.0563 N   0  0  0  0  0  0  0  0  0  0  0  0
   -2.1674    0.3859    1.1898 C   0  0  0  0  0  0  0  0  0  0  0  0
   -2.1751    1.5987    1.3142 O   0  0  0  0  0  0  0  0  0  0  0  0
   -2.6854   -0.3175    2.0404 O   0  0  0  0  0  0  0  0  0  0  0  0
    0.6679   -0.8185   -1.0809 C   0  0  2  0  0  0  0  0  0  0  0  0
    0.4419   -1.8821   -1.0038 H   0  0  0  0  0  0  0  0  0  0  0  0
    2.1221   -0.6210   -1.0164 N   0  3  0  0  0  0  0  0  0  0  0  0
    2.5650   -1.1366   -1.7621 H   0  0  0  0  0  0  0  0  0  0  0  0
    2.3328    0.3608   -1.1151 H   0  0  0  0  0  0  0  0  0  0  0  0
    2.4673   -0.9514   -0.1277 H   0  0  0  0  0  0  0  0  0  0  0  0
    0.1465   -0.2879   -2.3915 C   0  0  0  0  0  0  0  0  0  0  0  0
    0.7097    0.6446   -2.9389 O   0  0  0  0  0  0  0  0  0  0  0  0
   -0.8386   -0.7911   -2.9043 O   0  0  0  0  0  0  0  0  0  0  0  0
    1.4300    1.5407    0.0522 H   0  0  0  0  0  0  0  0  0  0  0  0
   -0.0075    1.8196   -0.9598 H   0  0  0  0  0  0  0  0  0  0  0  0
   -0.1270    1.9501    0.8113 H   0  0  0  0  0  0  0  0  0  0  0  0
    0.0240   -0.1022    2.2282 H   0  0  0  0  0  0  0  0  0  0  0  0
    0.2513   -1.6948    1.4665 H   0  0  0  0  0  0  0  0  0  0  0  0
    1.5811   -0.5117    1.4691 H   0  0  0  0  0  0  0  0  0  0  0  0
   -1.4576   -2.1115   -0.8794 H   0  0  0  0  0  0  0  0  0  0  0  0
   -1.5321   -2.1419    0.7817 H   0  0  0  0  0  0  0  0  0  0  0  0
  1  2  1  0  0  0  0
  1 19  1  0  0  0  0
  1 20  1  0  0  0  0
  1 21  1  0  0  0  0
  2  3  1  0  0  0  0
  2  4  1  0  0  0  0
  2 10  1  0  0  0  0
  3 22  1  0  0  0  0
  3 23  1  0  0  0  0
  3 24  1  0  0  0  0
  4  5  1  6  0  0  0
  4  6  1  0  0  0  0
  4  7  1  0  0  0  0
  6 25  1  0  0  0  0
  6 26  1  0  0  0  0
  7  8  2  0  0  0  0
  7  9  1  0  0  0  0
 10 11  1  1  0  0  0
 10 12  1  0  0  0  0
 10 16  1  0  0  0  0
 12 13  1  0  0  0  0
 12 14  1  0  0  0  0
 12 15  1  0  0  0  0
 16 17  2  0  0  0  0
 16 18  1  0  0  0  0
M  CHG  1  12   1
M  END
$$$$
ZINC000001694470
 OpenBabel11022112223D

 26 25  0  0  1  0  0  0  0  0999 V2000
    0.0747    1.6940   -0.0620 C   0  0  0  0  0  0  0  0  0  0  0  0
    0.2173    0.1718   -0.1211 C   0  0  0  0  0  0  0  0  0  0  0  0
    1.1588   -0.2958    0.9906 C   0  0  0  0  0  0  0  0  0  0  0  0
   -1.1556   -0.4768    0.0669 C   0  0  1  0  0  0  0  0  0  0  0  0
   -1.0500   -1.5615    0.0525 H   0  0  0  0  0  0  0  0  0  0  0  0
   -1.7231   -0.0571    1.3552 N   0  3  0  0  0  0  0  0  0  0  0  0
   -1.8462    0.9444    1.3582 H   0  0  0  0  0  0  0  0  0  0  0  0
   -2.6163   -0.5061    1.4915 H   0  0  0  0  0  0  0  0  0  0  0  0
   -1.0966   -0.3212    2.1007 H   0  0  0  0  0  0  0  0  0  0  0  0
   -2.0716   -0.0463   -1.0496 C   0  0  0  0  0  0  0  0  0  0  0  0
   -2.1298   -0.7004   -2.0769 O   0  0  0  0  0  0  0  0  0  0  0  0
   -2.7546    0.9560   -0.9257 O   0  0  0  0  0  0  0  0  0  0  0  0
    0.7914   -0.2342   -1.4800 C   0  0  2  0  0  0  0  0  0  0  0  0
    0.1691    0.1769   -2.2748 H   0  0  0  0  0  0  0  0  0  0  0  0
    0.8139   -1.6994   -1.5840 N   0  0  0  0  0  0  0  0  0  0  0  0
    2.1941    0.3004   -1.6128 C   0  0  0  0  0  0  0  0  0  0  0  0
    3.1426   -0.4654   -1.5954 O   0  0  0  0  0  0  0  0  0  0  0  0
    2.3804    1.4988   -1.7376 O   0  0  0  0  0  0  0  0  0  0  0  0
    1.0528    2.1560   -0.1959 H   0  0  0  0  0  0  0  0  0  0  0  0
   -0.5960    2.0271   -0.8540 H   0  0  0  0  0  0  0  0  0  0  0  0
   -0.3343    1.9833    0.9061 H   0  0  0  0  0  0  0  0  0  0  0  0
    0.7498   -0.0065    1.9586 H   0  0  0  0  0  0  0  0  0  0  0  0
    1.2604   -1.3802    0.9484 H   0  0  0  0  0  0  0  0  0  0  0  0
    2.1369    0.1662    0.8566 H   0  0  0  0  0  0  0  0  0  0  0  0
    1.4010   -2.1036   -0.8699 H   0  0  0  0  0  0  0  0  0  0  0  0
   -0.1199   -2.0793   -1.5422 H   0  0  0  0  0  0  0  0  0  0  0  0
  1  2  1  0  0  0  0
  1 19  1  0  0  0  0
  1 20  1  0  0  0  0
  1 21  1  0  0  0  0
  2  3  1  0  0  0  0
  2  4  1  0  0  0  0
  2 13  1  0  0  0  0
  3 22  1  0  0  0  0
  3 23  1  0  0  0  0
  3 24  1  0  0  0  0
  4  5  1  6  0  0  0
  4  6  1  0  0  0  0
  4 10  1  0  0  0  0
  6  7  1  0  0  0  0
  6  8  1  0  0  0  0
  6  9  1  0  0  0  0
 10 11  2  0  0  0  0
 10 12  1  0  0  0  0
 13 14  1  6  0  0  0
 13 15  1  0  0  0  0
 13 16  1  0  0  0  0
 15 25  1  0  0  0  0
 15 26  1  0  0  0  0
 16 17  2  0  0  0  0
 16 18  1  0  0  0  0
M  CHG  1   6   1
M  END
$$$$
ZINC000001694472
 OpenBabel11022112223D

 26 25  0  0  1  0  0  0  0  0999 V2000
   -0.0187    1.5258    0.0104 C   0  0  0  0  0  0  0  0  0  0  0  0
    0.0021   -0.0041    0.0020 C   0  0  0  0  0  0  0  0  0  0  0  0
    0.7421   -0.5109    1.2415 C   0  0  0  0  0  0  0  0  0  0  0  0
   -1.4333   -0.5336    0.0129 C   0  0  1  0  0  0  0  0  0  0  0  0
   -1.9605   -0.1726   -0.8702 H   0  0  0  0  0  0  0  0  0  0  0  0
   -1.4134   -2.0025    0.0048 N   0  0  0  0  0  0  0  0  0  0  0  0
   -2.1387   -0.0476    1.2528 C   0  0  0  0  0  0  0  0  0  0  0  0
   -2.4265    1.1315    1.3677 O   0  0  0  0  0  0  0  0  0  0  0  0
   -2.4215   -0.8336    2.1409 O   0  0  0  0  0  0  0  0  0  0  0  0
    0.7182   -0.4975   -1.2568 C   0  0  1  0  0  0  0  0  0  0  0  0
    0.7330   -1.5874   -1.2628 H   0  0  0  0  0  0  0  0  0  0  0  0
    0.0077   -0.0109   -2.4469 N   0  3  0  0  0  0  0  0  0  0  0  0
   -0.9389   -0.3601   -2.4397 H   0  0  0  0  0  0  0  0  0  0  0  0
   -0.0060    0.9980   -2.4413 H   0  0  0  0  0  0  0  0  0  0  0  0
    0.4800   -0.3363   -3.2770 H   0  0  0  0  0  0  0  0  0  0  0  0
    2.1320    0.0241   -1.2675 C   0  0  0  0  0  0  0  0  0  0  0  0
    2.9465   -0.4059   -0.4687 O   0  0  0  0  0  0  0  0  0  0  0  0
    2.4613    0.8762   -2.0749 O   0  0  0  0  0  0  0  0  0  0  0  0
    1.0039    1.9031    0.0027 H   0  0  0  0  0  0  0  0  0  0  0  0
   -0.5459    1.8868   -0.8726 H   0  0  0  0  0  0  0  0  0  0  0  0
   -0.5289    1.8773    0.9072 H   0  0  0  0  0  0  0  0  0  0  0  0
    0.2319   -0.1594    2.1383 H   0  0  0  0  0  0  0  0  0  0  0  0
    0.7568   -1.6008    1.2356 H   0  0  0  0  0  0  0  0  0  0  0  0
    1.7647   -0.1336    1.2338 H   0  0  0  0  0  0  0  0  0  0  0  0
   -1.0030   -2.3539   -0.8474 H   0  0  0  0  0  0  0  0  0  0  0  0
   -0.9298   -2.3620    0.8141 H   0  0  0  0  0  0  0  0  0  0  0  0
  1  2  1  0  0  0  0
  1 19  1  0  0  0  0
  1 20  1  0  0  0  0
  1 21  1  0  0  0  0
  2  3  1  0  0  0  0
  2  4  1  0  0  0  0
  2 10  1  0  0  0  0
  3 22  1  0  0  0  0
  3 23  1  0  0  0  0
  3 24  1  0  0  0  0
  4  5  1  6  0  0  0
  4  6  1  0  0  0  0
  4  7  1  0  0  0  0
  6 25  1  0  0  0  0
  6 26  1  0  0  0  0
  7  8  2  0  0  0  0
  7  9  1  0  0  0  0
 10 11  1  6  0  0  0
 10 12  1  0  0  0  0
 10 16  1  0  0  0  0
 12 13  1  0  0  0  0
 12 14  1  0  0  0  0
 12 15  1  0  0  0  0
 16 17  2  0  0  0  0
 16 18  1  0  0  0  0
M  CHG  1  12   1
M  END
$$$$
ZINC000217961107
 OpenBabel11022112223D

 19 19  0  0  1  0  0  0  0  0999 V2000
   -0.0225    1.8097    0.0120 C   0  0  0  0  0  0  0  0  0  0  0  0
    0.0021   -0.0041    0.0020 S   0  0  0  0  0  0  0  0  0  0  0  0
    0.8010   -0.4520    1.0884 O   0  0  0  0  0  0  0  0  0  0  0  0
   -1.3336   -0.4743   -0.1172 O   0  0  0  0  0  0  0  0  0  0  0  0
    0.8798   -0.3584   -1.5454 C   0  0  1  0  0  0  0  0  0  0  0  0
    0.6949    0.3403   -2.3614 H   0  0  0  0  0  0  0  0  0  0  0  0
    2.2795   -0.9673   -1.4403 C   0  0  0  0  0  0  0  0  0  0  0  0
    1.1036   -1.8273   -1.9103 C   0  0  1  0  0  0  0  0  0  0  0  0
    0.5916   -2.8429   -0.9805 N   0  0  0  0  0  0  0  0  0  0  0  0
    1.0520   -2.1975   -3.3702 C   0  0  0  0  0  0  0  0  0  0  0  0
    0.2292   -3.0057   -3.7655 O   0  0  0  0  0  0  0  0  0  0  0  0
    1.8332   -1.6887   -4.1560 O   0  0  0  0  0  0  0  0  0  0  0  0
    1.0001    2.1870    0.0043 H   0  0  0  0  0  0  0  0  0  0  0  0
   -0.5497    2.1708   -0.8711 H   0  0  0  0  0  0  0  0  0  0  0  0
   -0.5327    2.1613    0.9088 H   0  0  0  0  0  0  0  0  0  0  0  0
    3.0153   -0.6695   -2.1872 H   0  0  0  0  0  0  0  0  0  0  0  0
    2.6729   -1.1550   -0.4412 H   0  0  0  0  0  0  0  0  0  0  0  0
    0.7919   -3.7734   -1.3152 H   0  0  0  0  0  0  0  0  0  0  0  0
    0.9639   -2.7043   -0.0529 H   0  0  0  0  0  0  0  0  0  0  0  0
  1  2  1  0  0  0  0
  1 13  1  0  0  0  0
  1 14  1  0  0  0  0
  1 15  1  0  0  0  0
  2  3  2  0  0  0  0
  2  4  2  0  0  0  0
  2  5  1  0  0  0  0
  5  6  1  6  0  0  0
  5  8  1  0  0  0  0
  5  7  1  0  0  0  0
  7  8  1  0  0  0  0
  7 16  1  0  0  0  0
  7 17  1  0  0  0  0
  8  9  1  1  0  0  0
  8 10  1  0  0  0  0
  9 18  1  0  0  0  0
  9 19  1  0  0  0  0
 10 11  2  0  0  0  0
 10 12  1  0  0  0  0
M  END
$$$$
ZINC000217960945
 OpenBabel11022112223D

 19 19  0  0  1  0  0  0  0  0999 V2000
   -0.0225    1.8097    0.0120 C   0  0  0  0  0  0  0  0  0  0  0  0
    0.0021   -0.0041    0.0020 S   0  0  0  0  0  0  0  0  0  0  0  0
    0.8010   -0.4520    1.0884 O   0  0  0  0  0  0  0  0  0  0  0  0
   -1.3336   -0.4743   -0.1172 O   0  0  0  0  0  0  0  0  0  0  0  0
    0.8798   -0.3584   -1.5454 C   0  0  1  0  0  0  0  0  0  0  0  0
    0.6949    0.3403   -2.3614 H   0  0  0  0  0  0  0  0  0  0  0  0
    2.2795   -0.9673   -1.4403 C   0  0  0  0  0  0  0  0  0  0  0  0
    1.1036   -1.8273   -1.9103 C   0  0  2  0  0  0  0  0  0  0  0  0
    1.0533   -2.1881   -3.3334 N   0  0  0  0  0  0  0  0  0  0  0  0
    0.5784   -2.8691   -0.9564 C   0  0  0  0  0  0  0  0  0  0  0  0
    0.9795   -2.8993    0.1946 O   0  0  0  0  0  0  0  0  0  0  0  0
   -0.2476   -3.6818   -1.3356 O   0  0  0  0  0  0  0  0  0  0  0  0
    1.0001    2.1870    0.0043 H   0  0  0  0  0  0  0  0  0  0  0  0
   -0.5497    2.1708   -0.8711 H   0  0  0  0  0  0  0  0  0  0  0  0
   -0.5327    2.1613    0.9088 H   0  0  0  0  0  0  0  0  0  0  0  0
    3.0153   -0.6695   -2.1872 H   0  0  0  0  0  0  0  0  0  0  0  0
    2.6729   -1.1550   -0.4412 H   0  0  0  0  0  0  0  0  0  0  0  0
    1.2131   -3.1761   -3.4618 H   0  0  0  0  0  0  0  0  0  0  0  0
    0.1771   -1.9068   -3.7470 H   0  0  0  0  0  0  0  0  0  0  0  0
  1  2  1  0  0  0  0
  1 13  1  0  0  0  0
  1 14  1  0  0  0  0
  1 15  1  0  0  0  0
  2  3  2  0  0  0  0
  2  4  2  0  0  0  0
  2  5  1  0  0  0  0
  5  6  1  6  0  0  0
  5  8  1  0  0  0  0
  5  7  1  0  0  0  0
  7  8  1  0  0  0  0
  7 16  1  0  0  0  0
  7 17  1  0  0  0  0
  8  9  1  6  0  0  0
  8 10  1  0  0  0  0
  9 18  1  0  0  0  0
  9 19  1  0  0  0  0
 10 11  2  0  0  0  0
 10 12  1  0  0  0  0
M  END
$$$$
ZINC000001731973
 OpenBabel11022112223D

 20 19  0  0  1  0  0  0  0  0999 V2000
    0.0021   -0.0041    0.0020 O   0  0  0  0  0  0  0  0  0  0  0  0
   -0.0189    1.5408    0.0105 P   0  0  1  0  0  0  0  0  0  0  0  0
    1.4306    2.0755   -0.0005 O   0  0  0  0  0  0  0  0  0  0  0  0
   -0.7976    2.0741   -1.2938 O   0  0  0  0  0  0  0  0  0  0  0  0
   -0.8722    2.1287    1.5104 C   0  0  0  0  0  0  0  0  0  0  0  0
   -0.2071    1.5208    2.7469 C   0  0  0  0  0  0  0  0  0  0  0  0
   -0.9232    2.0142    4.0057 C   0  0  2  0  0  0  0  0  0  0  0  0
   -1.9872    1.7899    3.9299 H   0  0  0  0  0  0  0  0  0  0  0  0
   -0.7420    3.4258    4.1345 O   0  0  0  0  0  0  0  0  0  0  0  0
   -0.3399    1.3111    5.2330 C   0  0  0  0  0  0  0  0  0  0  0  0
   -1.0848    1.6835    6.3942 O   0  0  0  0  0  0  0  0  0  0  0  0
   -0.3982    1.7988   -2.1303 H   0  0  0  0  0  0  0  0  0  0  0  0
   -0.8095    3.2157    1.5615 H   0  0  0  0  0  0  0  0  0  0  0  0
   -1.9188    1.8263    1.4751 H   0  0  0  0  0  0  0  0  0  0  0  0
   -0.2697    0.4338    2.6958 H   0  0  0  0  0  0  0  0  0  0  0  0
    0.8395    1.8232    2.7822 H   0  0  0  0  0  0  0  0  0  0  0  0
    0.1829    3.6986    4.2069 H   0  0  0  0  0  0  0  0  0  0  0  0
   -0.3979    0.2314    5.0950 H   0  0  0  0  0  0  0  0  0  0  0  0
    0.7018    1.6058    5.3597 H   0  0  0  0  0  0  0  0  0  0  0  0
   -0.7698    1.2740    7.2117 H   0  0  0  0  0  0  0  0  0  0  0  0
  2  1  2  6  0  0  0
  2  3  1  0  0  0  0
  2  4  1  0  0  0  0
  2  5  1  0  0  0  0
  4 12  1  0  0  0  0
  5  6  1  0  0  0  0
  5 13  1  0  0  0  0
  5 14  1  0  0  0  0
  6  7  1  0  0  0  0
  6 15  1  0  0  0  0
  6 16  1  0  0  0  0
  7  8  1  6  0  0  0
  7  9  1  0  0  0  0
  7 10  1  0  0  0  0
  9 17  1  0  0  0  0
 10 11  1  0  0  0  0
 10 18  1  0  0  0  0
 10 19  1  0  0  0  0
 11 20  1  0  0  0  0
M  END
$$$$
ZINC000038700922
 OpenBabel11022112223D

 14 14  0  0  0  0  0  0  0  0999 V2000
   -0.0167    1.3771    0.0096 N   0  0  0  0  0  0  0  0  0  0  0  0
    0.0021   -0.0041    0.0020 C   0  0  0  0  0  0  0  0  0  0  0  0
   -1.1281   -0.6491    0.0040 N   0  0  0  0  0  0  0  0  0  0  0  0
   -1.1772   -2.0477   -0.0039 N   0  0  0  0  0  0  0  0  0  0  0  0
   -0.0257   -2.7538   -0.0137 C   0  0  0  0  0  0  0  0  0  0  0  0
   -0.0378   -3.9708   -0.0211 O   0  0  0  0  0  0  0  0  0  0  0  0
    1.2583   -2.0009   -0.0158 C   0  0  0  0  0  0  0  0  0  0  0  0
    2.3235   -2.5867   -0.0250 O   0  0  0  0  0  0  0  0  0  0  0  0
    1.2113   -0.6513   -0.0130 N   0  0  0  0  0  0  0  0  0  0  0  0
    2.3707    0.0709   -0.0153 N   0  0  0  0  0  0  0  0  0  0  0  0
    0.8167    1.8735    0.0043 H   0  0  0  0  0  0  0  0  0  0  0  0
   -0.8632    1.8506    0.0162 H   0  0  0  0  0  0  0  0  0  0  0  0
    3.1757   -0.5375   -0.0190 H   0  0  0  0  0  0  0  0  0  0  0  0
    2.3970    0.7102   -0.7955 H   0  0  0  0  0  0  0  0  0  0  0  0
  1  2  1  0  0  0  0
  1 11  1  0  0  0  0
  1 12  1  0  0  0  0
  2  9  1  0  0  0  0
  2  3  2  0  0  0  0
  3  4  1  0  0  0  0
  4  5  1  0  0  0  0
  5  6  2  0  0  0  0
  5  7  1  0  0  0  0
  7  8  2  0  0  0  0
  7  9  1  0  0  0  0
  9 10  1  0  0  0  0
 10 13  1  0  0  0  0
 10 14  1  0  0  0  0
M  END
$$$$
ZINC000039132896
 OpenBabel11022112223D

 18 19  0  0  1  0  0  0  0  0999 V2000
   -0.0165    1.3678    0.0096 N   0  0  0  0  0  0  0  0  0  0  0  0
    0.0021   -0.0041    0.0020 C   0  0  0  0  0  0  0  0  0  0  0  0
   -1.1357   -0.6614    0.0039 N   0  0  0  0  0  0  0  0  0  0  0  0
   -1.1664   -2.0041   -0.0037 C   0  0  0  0  0  0  0  0  0  0  0  0
    0.0252   -2.7106   -0.0137 C   0  0  0  0  0  0  0  0  0  0  0  0
   -0.2411   -4.0969   -0.0204 N   0  0  0  0  0  0  0  0  0  0  0  0
   -1.7027   -4.2464   -0.0139 C   0  0  2  0  0  0  0  0  0  0  0  0
   -2.0225   -4.7837    0.8789 H   0  0  0  0  0  0  0  0  0  0  0  0
   -2.1335   -4.9390   -1.1873 O   0  0  0  0  0  0  0  0  0  0  0  0
   -2.2392   -2.8804   -0.0034 N   0  0  0  0  0  0  0  0  0  0  0  0
    1.2353   -2.0014   -0.0152 C   0  0  0  0  0  0  0  0  0  0  0  0
    2.3034   -2.5943   -0.0240 O   0  0  0  0  0  0  0  0  0  0  0  0
    1.1985   -0.6526   -0.0129 N   0  0  0  0  0  0  0  0  0  0  0  0
    0.8168    1.8642    0.0043 H   0  0  0  0  0  0  0  0  0  0  0  0
   -0.8631    1.8413    0.0162 H   0  0  0  0  0  0  0  0  0  0  0  0
    0.4140   -4.8122   -0.0278 H   0  0  0  0  0  0  0  0  0  0  0  0
   -3.0905   -5.0677   -1.2389 H   0  0  0  0  0  0  0  0  0  0  0  0
   -3.1776   -2.6349    0.0027 H   0  0  0  0  0  0  0  0  0  0  0  0
  1  2  1  0  0  0  0
  1 14  1  0  0  0  0
  1 15  1  0  0  0  0
  2 13  1  0  0  0  0
  2  3  2  0  0  0  0
  3  4  1  0  0  0  0
  4 10  1  0  0  0  0
  4  5  2  0  0  0  0
  5  6  1  0  0  0  0
  5 11  1  0  0  0  0
  6  7  1  0  0  0  0
  6 16  1  0  0  0  0
  7  8  1  1  0  0  0
  7  9  1  0  0  0  0
  7 10  1  0  0  0  0
  9 17  1  0  0  0  0
 10 18  1  0  0  0  0
 11 12  2  0  0  0  0
 11 13  1  0  0  0  0
M  END
$$$$
ZINC000039132895
 OpenBabel11022112223D

 18 19  0  0  1  0  0  0  0  0999 V2000
   -0.0165    1.3678    0.0096 N   0  0  0  0  0  0  0  0  0  0  0  0
    0.0021   -0.0041    0.0020 C   0  0  0  0  0  0  0  0  0  0  0  0
   -1.1357   -0.6614    0.0039 N   0  0  0  0  0  0  0  0  0  0  0  0
   -1.1664   -2.0041   -0.0037 C   0  0  0  0  0  0  0  0  0  0  0  0
    0.0252   -2.7106   -0.0137 C   0  0  0  0  0  0  0  0  0  0  0  0
   -0.2411   -4.0969   -0.0204 N   0  0  0  0  0  0  0  0  0  0  0  0
   -1.7027   -4.2464   -0.0139 C   0  0  1  0  0  0  0  0  0  0  0  0
   -2.0315   -4.7734   -0.9097 H   0  0  0  0  0  0  0  0  0  0  0  0
   -2.1218   -4.9525    1.1556 O   0  0  0  0  0  0  0  0  0  0  0  0
   -2.2392   -2.8804   -0.0034 N   0  0  0  0  0  0  0  0  0  0  0  0
    1.2353   -2.0014   -0.0152 C   0  0  0  0  0  0  0  0  0  0  0  0
    2.3034   -2.5943   -0.0240 O   0  0  0  0  0  0  0  0  0  0  0  0
    1.1985   -0.6526   -0.0129 N   0  0  0  0  0  0  0  0  0  0  0  0
    0.8168    1.8642    0.0043 H   0  0  0  0  0  0  0  0  0  0  0  0
   -0.8631    1.8413    0.0162 H   0  0  0  0  0  0  0  0  0  0  0  0
    0.4140   -4.8122   -0.0278 H   0  0  0  0  0  0  0  0  0  0  0  0
   -3.0783   -5.0819    1.2153 H   0  0  0  0  0  0  0  0  0  0  0  0
   -3.1776   -2.6349    0.0027 H   0  0  0  0  0  0  0  0  0  0  0  0
  1  2  1  0  0  0  0
  1 14  1  0  0  0  0
  1 15  1  0  0  0  0
  2 13  1  0  0  0  0
  2  3  2  0  0  0  0
  3  4  1  0  0  0  0
  4 10  1  0  0  0  0
  4  5  2  0  0  0  0
  5  6  1  0  0  0  0
  5 11  1  0  0  0  0
  6  7  1  0  0  0  0
  6 16  1  0  0  0  0
  7  8  1  6  0  0  0
  7  9  1  0  0  0  0
  7 10  1  0  0  0  0
  9 17  1  0  0  0  0
 10 18  1  0  0  0  0
 11 12  2  0  0  0  0
 11 13  1  0  0  0  0
M  END
$$$$
ZINC000095617504
 OpenBabel11022112223D

 16 17  0  0  0  0  0  0  0  0999 V2000
   -0.0166    1.3694    0.0096 N   0  0  0  0  0  0  0  0  0  0  0  0
    0.0021   -0.0041    0.0020 C   0  0  0  0  0  0  0  0  0  0  0  0
   -1.1770   -0.7269    0.0036 C   0  0  0  0  0  0  0  0  0  0  0  0
   -2.5328   -0.3814    0.0122 N   0  0  0  0  0  0  0  0  0  0  0  0
   -3.2499   -1.5223    0.0091 C   0  0  0  0  0  0  0  0  0  0  0  0
   -4.4650   -1.5855    0.0142 O   0  0  0  0  0  0  0  0  0  0  0  0
   -2.4193   -2.5812   -0.0011 N   0  0  0  0  0  0  0  0  0  0  0  0
   -1.1179   -2.1277   -0.0048 C   0  0  0  0  0  0  0  0  0  0  0  0
    0.0647   -2.7343   -0.0141 N   0  0  0  0  0  0  0  0  0  0  0  0
    1.1931   -2.0331   -0.0155 C   0  0  0  0  0  0  0  0  0  0  0  0
    2.2610   -2.6242   -0.0241 O   0  0  0  0  0  0  0  0  0  0  0  0
    1.1882   -0.6876   -0.0130 N   0  0  0  0  0  0  0  0  0  0  0  0
    0.8168    1.8658    0.0043 H   0  0  0  0  0  0  0  0  0  0  0  0
   -0.8631    1.8429    0.0162 H   0  0  0  0  0  0  0  0  0  0  0  0
   -2.8926    0.5193    0.0196 H   0  0  0  0  0  0  0  0  0  0  0  0
    2.0272   -0.2007   -0.0141 H   0  0  0  0  0  0  0  0  0  0  0  0
  1  2  1  0  0  0  0
  1 13  1  0  0  0  0
  1 14  1  0  0  0  0
  2 12  1  0  0  0  0
  2  3  2  0  0  0  0
  3  8  1  0  0  0  0
  3  4  1  0  0  0  0
  4  5  1  0  0  0  0
  4 15  1  0  0  0  0
  5  6  2  0  0  0  0
  5  7  1  0  0  0  0
  7  8  1  0  0  0  0
  8  9  2  0  0  0  0
  9 10  1  0  0  0  0
 10 11  2  0  0  0  0
 10 12  1  0  0  0  0
 12 16  1  0  0  0  0
M  END
$$$$
ZINC000018204232
 OpenBabel11022112223D

 17 18  0  0  0  0  0  0  0  0999 V2000
   -0.0165    1.3651    0.0095 N   0  0  0  0  0  0  0  0  0  0  0  0
    0.0021   -0.0041    0.0020 C   0  0  0  0  0  0  0  0  0  0  0  0
   -1.1381   -0.6590    0.0040 N   0  0  0  0  0  0  0  0  0  0  0  0
   -1.1728   -2.0014   -0.0031 C   0  0  0  0  0  0  0  0  0  0  0  0
    0.0256   -2.6961   -0.0127 C   0  0  0  0  0  0  0  0  0  0  0  0
   -0.3303   -4.1629   -0.0185 C   0  0  0  0  0  0  0  0  0  0  0  0
   -1.8453   -4.1660   -0.0108 C   0  0  0  0  0  0  0  0  0  0  0  0
   -2.5655   -5.1416   -0.0116 O   0  0  0  0  0  0  0  0  0  0  0  0
   -2.2387   -2.8807   -0.0023 N   0  0  0  0  0  0  0  0  0  0  0  0
    1.2328   -2.0009   -0.0148 C   0  0  0  0  0  0  0  0  0  0  0  0
    2.2970   -2.5990   -0.0236 O   0  0  0  0  0  0  0  0  0  0  0  0
    1.2001   -0.6495   -0.0129 N   0  0  0  0  0  0  0  0  0  0  0  0
    0.8169    1.8615    0.0043 H   0  0  0  0  0  0  0  0  0  0  0  0
   -0.8630    1.8386    0.0161 H   0  0  0  0  0  0  0  0  0  0  0  0
    0.0491   -4.6455   -0.9192 H   0  0  0  0  0  0  0  0  0  0  0  0
    0.0582   -4.6547    0.8733 H   0  0  0  0  0  0  0  0  0  0  0  0
   -3.1676   -2.6015    0.0044 H   0  0  0  0  0  0  0  0  0  0  0  0
  1  2  1  0  0  0  0
  1 13  1  0  0  0  0
  1 14  1  0  0  0  0
  2 12  1  0  0  0  0
  2  3  2  0  0  0  0
  3  4  1  0  0  0  0
  4  9  1  0  0  0  0
  4  5  2  0  0  0  0
  5  6  1  0  0  0  0
  5 10  1  0  0  0  0
  6  7  1  0  0  0  0
  6 15  1  0  0  0  0
  6 16  1  0  0  0  0
  7  8  2  0  0  0  0
  7  9  1  0  0  0  0
  9 17  1  0  0  0  0
 10 11  2  0  0  0  0
 10 12  1  0  0  0  0
M  END
$$$$
ZINC000085343336
 OpenBabel11022112223D

 19 19  0  0  0  0  0  0  0  0999 V2000
   -0.0169    1.3918    0.0097 N   0  0  0  0  0  0  0  0  0  0  0  0
    0.0021   -0.0041    0.0020 C   0  0  0  0  0  0  0  0  0  0  0  0
   -1.0541   -0.7824    0.0022 N   0  0  0  0  0  0  0  0  0  0  0  0
   -0.5824   -2.1051   -0.0069 N   0  0  0  0  0  0  0  0  0  0  0  0
    0.7589   -2.0313   -0.0122 C   0  0  0  0  0  0  0  0  0  0  0  0
    1.8688   -3.3998   -0.0243 S   0  0  0  0  0  0  0  0  0  0  0  0
    3.0530   -2.8959    0.5782 O   0  0  0  0  0  0  0  0  0  0  0  0
    1.1315   -4.4543    0.5789 O   0  0  0  0  0  0  0  0  0  0  0  0
    2.1459   -3.7423   -1.7839 C   0  0  0  0  0  0  0  0  0  0  0  0
    3.1054   -4.9253   -1.9283 C   0  0  0  0  0  0  0  0  0  0  0  0
    3.3237   -5.1951   -3.3145 O   0  0  0  0  0  0  0  0  0  0  0  0
    1.0990   -0.7674   -0.0126 N   0  0  0  0  0  0  0  0  0  0  0  0
    0.8165    1.8882    0.0044 H   0  0  0  0  0  0  0  0  0  0  0  0
   -0.8634    1.8654    0.0163 H   0  0  0  0  0  0  0  0  0  0  0  0
    1.1962   -3.9844   -2.2609 H   0  0  0  0  0  0  0  0  0  0  0  0
    2.5787   -2.8632   -2.2614 H   0  0  0  0  0  0  0  0  0  0  0  0
    4.0551   -4.6832   -1.4513 H   0  0  0  0  0  0  0  0  0  0  0  0
    2.6726   -5.8044   -1.4508 H   0  0  0  0  0  0  0  0  0  0  0  0
    3.9236   -5.9349   -3.4815 H   0  0  0  0  0  0  0  0  0  0  0  0
  1  2  1  0  0  0  0
  1 13  1  0  0  0  0
  1 14  1  0  0  0  0
  2 12  1  0  0  0  0
  2  3  2  0  0  0  0
  3  4  1  0  0  0  0
  4  5  1  0  0  0  0
  5  6  1  0  0  0  0
  5 12  2  0  0  0  0
  6  7  2  0  0  0  0
  6  8  2  0  0  0  0
  6  9  1  0  0  0  0
  9 10  1  0  0  0  0
  9 15  1  0  0  0  0
  9 16  1  0  0  0  0
 10 11  1  0  0  0  0
 10 17  1  0  0  0  0
 10 18  1  0  0  0  0
 11 19  1  0  0  0  0
M  END
$$$$
ZINC000085343336
 OpenBabel11022112223D

 19 19  0  0  0  0  0  0  0  0999 V2000
   -0.0167    1.3791    0.0096 N   0  0  0  0  0  0  0  0  0  0  0  0
    0.0021   -0.0041    0.0020 C   0  0  0  0  0  0  0  0  0  0  0  0
   -1.0508   -0.7932    0.0026 N   0  0  0  0  0  0  0  0  0  0  0  0
   -0.6574   -2.0675   -0.0062 C   0  0  0  0  0  0  0  0  0  0  0  0
   -1.7276   -3.4673   -0.0097 S   0  0  0  0  0  0  0  0  0  0  0  0
   -0.9554   -4.5004    0.5866 O   0  0  0  0  0  0  0  0  0  0  0  0
   -2.9207   -2.9978    0.6029 O   0  0  0  0  0  0  0  0  0  0  0  0
   -2.0095   -3.8170   -1.7672 C   0  0  0  0  0  0  0  0  0  0  0  0
   -2.9358   -5.0270   -1.9043 C   0  0  0  0  0  0  0  0  0  0  0  0
   -3.1579   -5.3025   -3.2888 O   0  0  0  0  0  0  0  0  0  0  0  0
    0.6477   -2.1121   -0.0124 N   0  0  0  0  0  0  0  0  0  0  0  0
    1.1037   -0.7840   -0.0132 N   0  0  0  0  0  0  0  0  0  0  0  0
    0.8167    1.8755    0.0043 H   0  0  0  0  0  0  0  0  0  0  0  0
   -0.8632    1.8526    0.0162 H   0  0  0  0  0  0  0  0  0  0  0  0
   -2.4713   -2.9505   -2.2406 H   0  0  0  0  0  0  0  0  0  0  0  0
   -1.0573   -4.0316   -2.2523 H   0  0  0  0  0  0  0  0  0  0  0  0
   -2.4740   -5.8935   -1.4309 H   0  0  0  0  0  0  0  0  0  0  0  0
   -3.8880   -4.8124   -1.4192 H   0  0  0  0  0  0  0  0  0  0  0  0
   -3.7377   -6.0592   -3.4511 H   0  0  0  0  0  0  0  0  0  0  0  0
  1  2  1  0  0  0  0
  1 13  1  0  0  0  0
  1 14  1  0  0  0  0
  2 12  1  0  0  0  0
  2  3  2  0  0  0  0
  3  4  1  0  0  0  0
  4  5  1  0  0  0  0
  4 11  2  0  0  0  0
  5  6  2  0  0  0  0
  5  7  2  0  0  0  0
  5  8  1  0  0  0  0
  8  9  1  0  0  0  0
  8 15  1  0  0  0  0
  8 16  1  0  0  0  0
  9 10  1  0  0  0  0
  9 17  1  0  0  0  0
  9 18  1  0  0  0  0
 10 19  1  0  0  0  0
 11 12  1  0  0  0  0
M  END
$$$$
ZINC000004878845
 OpenBabel11022112223D

 18 19  0  0  0  0  0  0  0  0999 V2000
   -0.0165    1.3684    0.0096 N   0  0  0  0  0  0  0  0  0  0  0  0
    0.0021   -0.0041    0.0020 C   0  0  0  0  0  0  0  0  0  0  0  0
   -1.1415   -0.6502    0.0041 N   0  0  0  0  0  0  0  0  0  0  0  0
   -1.1887   -1.9880   -0.0029 C   0  0  0  0  0  0  0  0  0  0  0  0
   -0.0079   -2.7214   -0.0127 C   0  0  0  0  0  0  0  0  0  0  0  0
   -0.0666   -4.1037   -0.0190 N   0  0  0  0  0  0  0  0  0  0  0  0
   -1.2532   -4.7380   -0.0158 C   0  0  0  0  0  0  0  0  0  0  0  0
   -1.2661   -5.9539   -0.0215 O   0  0  0  0  0  0  0  0  0  0  0  0
   -2.4238   -4.0801   -0.0060 N   0  0  0  0  0  0  0  0  0  0  0  0
   -2.4678   -2.7298   -0.0002 C   0  0  0  0  0  0  0  0  0  0  0  0
   -3.5308   -2.1403    0.0087 O   0  0  0  0  0  0  0  0  0  0  0  0
    1.2600   -1.9941   -0.0155 C   0  0  0  0  0  0  0  0  0  0  0  0
    2.3267   -2.5833   -0.0243 O   0  0  0  0  0  0  0  0  0  0  0  0
    1.2051   -0.6413   -0.0129 N   0  0  0  0  0  0  0  0  0  0  0  0
    0.8168    1.8648    0.0043 H   0  0  0  0  0  0  0  0  0  0  0  0
   -0.8631    1.8420    0.0162 H   0  0  0  0  0  0  0  0  0  0  0  0
   -3.2529   -4.5836   -0.0040 H   0  0  0  0  0  0  0  0  0  0  0  0
    2.0258   -0.1243   -0.0146 H   0  0  0  0  0  0  0  0  0  0  0  0
  1  2  1  0  0  0  0
  1 15  1  0  0  0  0
  1 16  1  0  0  0  0
  2 14  1  0  0  0  0
  2  3  2  0  0  0  0
  3  4  1  0  0  0  0
  4 10  1  0  0  0  0
  4  5  2  0  0  0  0
  5  6  1  0  0  0  0
  5 12  1  0  0  0  0
  6  7  1  0  0  0  0
  7  8  2  0  0  0  0
  7  9  1  0  0  0  0
  9 10  1  0  0  0  0
  9 17  1  0  0  0  0
 10 11  2  0  0  0  0
 12 13  2  0  0  0  0
 12 14  1  0  0  0  0
 14 18  1  0  0  0  0
M  END
$$$$
ZINC000008617482
 OpenBabel11022112223D

 17 18  0  0  0  0  0  0  0  0999 V2000
   -0.0165    1.3654    0.0095 N   0  0  0  0  0  0  0  0  0  0  0  0
    0.0021   -0.0041    0.0020 C   0  0  0  0  0  0  0  0  0  0  0  0
   -1.1391   -0.6601    0.0040 N   0  0  0  0  0  0  0  0  0  0  0  0
   -1.1709   -1.9999   -0.0031 C   0  0  0  0  0  0  0  0  0  0  0  0
    0.0181   -2.7035   -0.0127 C   0  0  0  0  0  0  0  0  0  0  0  0
   -0.3400   -4.1661   -0.0189 C   0  0  0  0  0  0  0  0  0  0  0  0
   -1.8064   -4.2308   -0.0122 N   0  0  0  0  0  0  0  0  0  0  0  0
   -2.2886   -2.9752   -0.0030 C   0  0  0  0  0  0  0  0  0  0  0  0
   -3.4673   -2.6826    0.0047 O   0  0  0  0  0  0  0  0  0  0  0  0
    1.2360   -2.0012   -0.0144 C   0  0  0  0  0  0  0  0  0  0  0  0
    2.3000   -2.5968   -0.0232 O   0  0  0  0  0  0  0  0  0  0  0  0
    1.1994   -0.6498   -0.0129 N   0  0  0  0  0  0  0  0  0  0  0  0
    0.8169    1.8618    0.0043 H   0  0  0  0  0  0  0  0  0  0  0  0
   -0.8630    1.8390    0.0161 H   0  0  0  0  0  0  0  0  0  0  0  0
    0.0517   -4.6438   -0.9170 H   0  0  0  0  0  0  0  0  0  0  0  0
    0.0604   -4.6535    0.8700 H   0  0  0  0  0  0  0  0  0  0  0  0
   -2.3381   -5.0421   -0.0140 H   0  0  0  0  0  0  0  0  0  0  0  0
  1  2  1  0  0  0  0
  1 13  1  0  0  0  0
  1 14  1  0  0  0  0
  2 12  1  0  0  0  0
  2  3  2  0  0  0  0
  3  4  1  0  0  0  0
  4  8  1  0  0  0  0
  4  5  2  0  0  0  0
  5  6  1  0  0  0  0
  5 10  1  0  0  0  0
  6  7  1  0  0  0  0
  6 15  1  0  0  0  0
  6 16  1  0  0  0  0
  7  8  1  0  0  0  0
  7 17  1  0  0  0  0
  8  9  2  0  0  0  0
 10 11  2  0  0  0  0
 10 12  1  0  0  0  0
M  END
$$$$
ZINC000100672435
 OpenBabel11022112223D

 13 13  0  0  0  0  0  0  0  0999 V2000
   -0.0164    1.3618    0.0095 N   0  0  0  0  0  0  0  0  0  0  0  0
    0.0021   -0.0041    0.0020 N   0  0  0  0  0  0  0  0  0  0  0  0
    1.1828   -0.6568   -0.0071 C   0  0  0  0  0  0  0  0  0  0  0  0
    2.2289   -0.0423   -0.0088 O   0  0  0  0  0  0  0  0  0  0  0  0
    1.1774   -2.1552   -0.0148 C   0  0  0  0  0  0  0  0  0  0  0  0
    2.2161   -2.7829   -0.0227 O   0  0  0  0  0  0  0  0  0  0  0  0
   -0.0175   -2.7884   -0.0121 N   0  0  0  0  0  0  0  0  0  0  0  0
   -1.1935   -2.0280   -0.0024 N   0  0  0  0  0  0  0  0  0  0  0  0
   -1.1559   -0.6860    0.0094 C   0  0  0  0  0  0  0  0  0  0  0  0
   -2.6301    0.1844    0.0213 S   0  0  0  0  0  0  0  0  0  0  0  0
    0.9205    1.7362    0.0026 H   0  0  0  0  0  0  0  0  0  0  0  0
   -0.5549    1.7204   -0.7648 H   0  0  0  0  0  0  0  0  0  0  0  0
   -2.0519   -2.4797   -0.0008 H   0  0  0  0  0  0  0  0  0  0  0  0
  1  2  1  0  0  0  0
  1 11  1  0  0  0  0
  1 12  1  0  0  0  0
  2  9  1  0  0  0  0
  2  3  1  0  0  0  0
  3  4  2  0  0  0  0
  3  5  1  0  0  0  0
  5  6  2  0  0  0  0
  5  7  1  0  0  0  0
  7  8  1  0  0  0  0
  8  9  1  0  0  0  0
  8 13  1  0  0  0  0
  9 10  2  0  0  0  0
M  END
$$$$
ZINC000039398416
 OpenBabel11022112223D

 13 13  0  0  0  0  0  0  0  0999 V2000
   -0.0164    1.3618    0.0095 N   0  0  0  0  0  0  0  0  0  0  0  0
    0.0021   -0.0041    0.0020 N   0  0  0  0  0  0  0  0  0  0  0  0
   -1.1794   -0.6992    0.0039 C   0  0  0  0  0  0  0  0  0  0  0  0
   -1.1600   -2.0497   -0.0040 C   0  0  0  0  0  0  0  0  0  0  0  0
   -2.3146   -2.7512   -0.0028 F   0  0  0  0  0  0  0  0  0  0  0  0
    0.0884   -2.7209   -0.0141 C   0  0  0  0  0  0  0  0  0  0  0  0
    0.1317   -3.9380   -0.0217 O   0  0  0  0  0  0  0  0  0  0  0  0
    1.2276   -1.9996   -0.0156 N   0  0  0  0  0  0  0  0  0  0  0  0
    1.1797   -0.6546   -0.0127 C   0  0  0  0  0  0  0  0  0  0  0  0
    2.2158   -0.0181   -0.0145 O   0  0  0  0  0  0  0  0  0  0  0  0
    0.9205    1.7362    0.0026 H   0  0  0  0  0  0  0  0  0  0  0  0
   -0.5549    1.7204   -0.7648 H   0  0  0  0  0  0  0  0  0  0  0  0
   -2.1207   -0.1699    0.0119 H   0  0  0  0  0  0  0  0  0  0  0  0
  1  2  1  0  0  0  0
  1 11  1  0  0  0  0
  1 12  1  0  0  0  0
  2  9  1  0  0  0  0
  2  3  1  0  0  0  0
  3  4  2  0  0  0  0
  3 13  1  0  0  0  0
  4  5  1  0  0  0  0
  4  6  1  0  0  0  0
  6  7  2  0  0  0  0
  6  8  1  0  0  0  0
  8  9  1  0  0  0  0
  9 10  2  0  0  0  0
M  END
$$$$
ZINC000003132311
 OpenBabel11022112223D

 17 17  0  0  0  0  0  0  0  0999 V2000
   -0.0173    1.4248    0.0099 O   0  0  0  0  0  0  0  0  0  0  0  0
    0.0021   -0.0041    0.0020 C   0  0  0  0  0  0  0  0  0  0  0  0
    0.6709   -0.4649   -1.1737 O   0  0  0  0  0  0  0  0  0  0  0  0
    0.7309   -0.5033    1.2229 C   0  0  0  0  0  0  0  0  0  0  0  0
    0.7833    0.1071    2.3949 N   0  0  0  0  0  0  0  0  0  0  0  0
    1.5622   -0.7048    3.2354 N   0  0  0  0  0  0  0  0  0  0  0  0
    1.9286   -1.7517    2.5154 C   0  0  0  0  0  0  0  0  0  0  0  0
    2.7788   -2.8984    2.9984 C   0  0  0  0  0  0  0  0  0  0  0  0
    2.5689   -3.0901    4.3989 O   0  0  0  0  0  0  0  0  0  0  0  0
    2.4172   -4.0887    2.2953 O   0  0  0  0  0  0  0  0  0  0  0  0
    1.4197   -1.6260    1.3043 N   0  0  0  0  0  0  0  0  0  0  0  0
    0.8606    1.8301    0.0037 H   0  0  0  0  0  0  0  0  0  0  0  0
   -1.0205   -0.3814    0.0098 H   0  0  0  0  0  0  0  0  0  0  0  0
    0.2557   -0.1806   -1.9994 H   0  0  0  0  0  0  0  0  0  0  0  0
    3.8296   -2.6737    2.8160 H   0  0  0  0  0  0  0  0  0  0  0  0
    1.6536   -3.2941    4.6351 H   0  0  0  0  0  0  0  0  0  0  0  0
    2.9253   -4.8692    2.5558 H   0  0  0  0  0  0  0  0  0  0  0  0
  1  2  1  0  0  0  0
  1 12  1  0  0  0  0
  2  3  1  0  0  0  0
  2  4  1  0  0  0  0
  2 13  1  0  0  0  0
  3 14  1  0  0  0  0
  4 11  1  0  0  0  0
  4  5  2  0  0  0  0
  5  6  1  0  0  0  0
  6  7  1  0  0  0  0
  7  8  1  0  0  0  0
  7 11  2  0  0  0  0
  8  9  1  0  0  0  0
  8 10  1  0  0  0  0
  8 15  1  0  0  0  0
  9 16  1  0  0  0  0
 10 17  1  0  0  0  0
M  END
$$$$
ZINC000003132311
 OpenBabel11022112223D

 17 17  0  0  0  0  0  0  0  0999 V2000
   -0.0173    1.4248    0.0099 O   0  0  0  0  0  0  0  0  0  0  0  0
    0.0021   -0.0041    0.0020 C   0  0  0  0  0  0  0  0  0  0  0  0
    0.6709   -0.4649   -1.1737 O   0  0  0  0  0  0  0  0  0  0  0  0
    0.7309   -0.5033    1.2229 C   0  0  0  0  0  0  0  0  0  0  0  0
    0.7833    0.1071    2.3949 N   0  0  0  0  0  0  0  0  0  0  0  0
    1.5622   -0.7048    3.2354 N   0  0  0  0  0  0  0  0  0  0  0  0
    1.9286   -1.7517    2.5154 C   0  0  0  0  0  0  0  0  0  0  0  0
    2.7788   -2.8984    2.9984 C   0  0  0  0  0  0  0  0  0  0  0  0
    2.5689   -3.0901    4.3989 O   0  0  0  0  0  0  0  0  0  0  0  0
    2.4172   -4.0887    2.2953 O   0  0  0  0  0  0  0  0  0  0  0  0
    1.4197   -1.6260    1.3043 N   0  0  0  0  0  0  0  0  0  0  0  0
    0.8606    1.8301    0.0037 H   0  0  0  0  0  0  0  0  0  0  0  0
   -1.0205   -0.3814    0.0098 H   0  0  0  0  0  0  0  0  0  0  0  0
    0.2557   -0.1806   -1.9994 H   0  0  0  0  0  0  0  0  0  0  0  0
    3.8296   -2.6737    2.8160 H   0  0  0  0  0  0  0  0  0  0  0  0
    1.6536   -3.2941    4.6351 H   0  0  0  0  0  0  0  0  0  0  0  0
    2.9253   -4.8692    2.5558 H   0  0  0  0  0  0  0  0  0  0  0  0
  1  2  1  0  0  0  0
  1 12  1  0  0  0  0
  2  3  1  0  0  0  0
  2  4  1  0  0  0  0
  2 13  1  0  0  0  0
  3 14  1  0  0  0  0
  4 11  1  0  0  0  0
  4  5  2  0  0  0  0
  5  6  1  0  0  0  0
  6  7  1  0  0  0  0
  7  8  1  0  0  0  0
  7 11  2  0  0  0  0
  8  9  1  0  0  0  0
  8 10  1  0  0  0  0
  8 15  1  0  0  0  0
  9 16  1  0  0  0  0
 10 17  1  0  0  0  0
M  END
$$$$
ZINC000005052934
 OpenBabel11022112223D

 20 20  0  0  1  0  0  0  0  0999 V2000
    0.0021   -0.0041    0.0020 O   0  0  0  0  0  0  0  0  0  0  0  0
   -0.0144    1.2117    0.0087 C   0  0  0  0  0  0  0  0  0  0  0  0
    1.1435    1.9014    0.0014 N   0  0  0  0  0  0  0  0  0  0  0  0
    2.4220    1.1862   -0.0147 C   0  0  0  0  0  0  0  0  0  0  0  0
    2.8822    1.0634   -1.3620 O   0  0  0  0  0  0  0  0  0  0  0  0
   -1.1906    1.8696    0.0179 N   0  0  0  0  0  0  0  0  0  0  0  0
   -2.4493    1.1200    0.0198 C   0  0  1  0  0  0  0  0  0  0  0  0
   -2.2763    0.0816   -0.2629 H   0  0  0  0  0  0  0  0  0  0  0  0
   -3.0961    1.1965    1.3410 N   0  0  0  0  0  0  0  0  0  0  0  0
   -4.2839    1.7996    1.1536 C   0  0  0  0  0  0  0  0  0  0  0  0
   -5.0772    2.0221    2.0471 O   0  0  0  0  0  0  0  0  0  0  0  0
   -4.4945    2.1272   -0.1264 N   0  0  0  0  0  0  0  0  0  0  0  0
   -3.4560    1.7656   -0.9116 C   0  0  0  0  0  0  0  0  0  0  0  0
   -3.3518    1.9276   -2.1086 O   0  0  0  0  0  0  0  0  0  0  0  0
    1.1303    2.8713    0.0067 H   0  0  0  0  0  0  0  0  0  0  0  0
    3.1556    1.7404    0.5708 H   0  0  0  0  0  0  0  0  0  0  0  0
    2.2885    0.1937    0.4156 H   0  0  0  0  0  0  0  0  0  0  0  0
    3.7259    0.5990   -1.4486 H   0  0  0  0  0  0  0  0  0  0  0  0
   -1.2038    2.8395    0.0232 H   0  0  0  0  0  0  0  0  0  0  0  0
   -2.7361    0.8743    2.1821 H   0  0  0  0  0  0  0  0  0  0  0  0
  1  2  2  0  0  0  0
  2  3  1  0  0  0  0
  2  6  1  0  0  0  0
  3  4  1  0  0  0  0
  3 15  1  0  0  0  0
  4  5  1  0  0  0  0
  4 16  1  0  0  0  0
  4 17  1  0  0  0  0
  5 18  1  0  0  0  0
  6  7  1  0  0  0  0
  6 19  1  0  0  0  0
  7  8  1  6  0  0  0
  7 13  1  0  0  0  0
  7  9  1  0  0  0  0
  9 10  1  0  0  0  0
  9 20  1  0  0  0  0
 10 11  2  0  0  0  0
 10 12  1  0  0  0  0
 12 13  1  0  0  0  0
 13 14  2  0  0  0  0
M  END
$$$$
ZINC000001726062
 OpenBabel11022112223D

 20 20  0  0  1  0  0  0  0  0999 V2000
    0.0021   -0.0041    0.0020 O   0  0  0  0  0  0  0  0  0  0  0  0
   -0.0144    1.2117    0.0087 C   0  0  0  0  0  0  0  0  0  0  0  0
    1.1435    1.9014    0.0014 N   0  0  0  0  0  0  0  0  0  0  0  0
    2.4220    1.1862   -0.0147 C   0  0  0  0  0  0  0  0  0  0  0  0
    2.8822    1.0634   -1.3620 O   0  0  0  0  0  0  0  0  0  0  0  0
   -1.1906    1.8696    0.0179 N   0  0  0  0  0  0  0  0  0  0  0  0
   -2.4493    1.1200    0.0198 C   0  0  2  0  0  0  0  0  0  0  0  0
   -2.2737    0.0786    0.2895 H   0  0  0  0  0  0  0  0  0  0  0  0
   -3.1086    1.2108   -1.2944 N   0  0  0  0  0  0  0  0  0  0  0  0
   -4.2946    1.8118   -1.0892 C   0  0  0  0  0  0  0  0  0  0  0  0
   -5.0962    2.0439   -1.9727 O   0  0  0  0  0  0  0  0  0  0  0  0
   -4.4929    2.1254    0.1963 N   0  0  0  0  0  0  0  0  0  0  0  0
   -3.4471    1.7554    0.9676 C   0  0  0  0  0  0  0  0  0  0  0  0
   -3.3321    1.9032    2.1654 O   0  0  0  0  0  0  0  0  0  0  0  0
    1.1303    2.8713    0.0067 H   0  0  0  0  0  0  0  0  0  0  0  0
    3.1556    1.7404    0.5708 H   0  0  0  0  0  0  0  0  0  0  0  0
    2.2885    0.1937    0.4156 H   0  0  0  0  0  0  0  0  0  0  0  0
    3.7259    0.5990   -1.4486 H   0  0  0  0  0  0  0  0  0  0  0  0
   -1.2038    2.8395    0.0232 H   0  0  0  0  0  0  0  0  0  0  0  0
   -2.7562    0.8987   -2.1425 H   0  0  0  0  0  0  0  0  0  0  0  0
  1  2  2  0  0  0  0
  2  3  1  0  0  0  0
  2  6  1  0  0  0  0
  3  4  1  0  0  0  0
  3 15  1  0  0  0  0
  4  5  1  0  0  0  0
  4 16  1  0  0  0  0
  4 17  1  0  0  0  0
  5 18  1  0  0  0  0
  6  7  1  0  0  0  0
  6 19  1  0  0  0  0
  7  8  1  1  0  0  0
  7 13  1  0  0  0  0
  7  9  1  0  0  0  0
  9 10  1  0  0  0  0
  9 20  1  0  0  0  0
 10 11  2  0  0  0  0
 10 12  1  0  0  0  0
 12 13  1  0  0  0  0
 13 14  2  0  0  0  0
M  END
$$$$
ZINC000100077361
 OpenBabel11022112223D

 14 14  0  0  0  0  0  0  0  0999 V2000
   -0.0463    0.0105    0.4422 O   0  0  0  0  0  0  0  0  0  0  0  0
   -0.0371    1.2212    0.2612 C   0  0  0  0  0  0  0  0  0  0  0  0
    1.0223    1.8345    0.2780 O   0  0  0  0  0  0  0  0  0  0  0  0
   -1.2922    1.9347    0.0187 C   0  0  0  0  0  0  0  0  0  0  0  0
   -2.4554    1.2454   -0.0819 C   0  0  0  0  0  0  0  0  0  0  0  0
   -3.7336    1.7641   -0.1902 N   0  0  0  0  0  0  0  0  0  0  0  0
   -4.5976    0.7378   -0.2658 C   0  0  0  0  0  0  0  0  0  0  0  0
   -5.8020    0.8623   -0.3691 O   0  0  0  0  0  0  0  0  0  0  0  0
   -3.9607   -0.4422   -0.2134 N   0  0  0  0  0  0  0  0  0  0  0  0
   -2.6319   -0.2333   -0.1060 C   0  0  0  0  0  0  0  0  0  0  0  0
   -1.7610   -1.0765   -0.0353 O   0  0  0  0  0  0  0  0  0  0  0  0
   -1.2916    3.0102   -0.0801 H   0  0  0  0  0  0  0  0  0  0  0  0
   -3.9657    2.7057   -0.2082 H   0  0  0  0  0  0  0  0  0  0  0  0
   -4.3893   -1.3116   -0.2510 H   0  0  0  0  0  0  0  0  0  0  0  0
  1  2  2  0  0  0  0
  2  3  1  0  0  0  0
  2  4  1  0  0  0  0
  4  5  2  0  0  0  0
  4 12  1  0  0  0  0
  5 10  1  0  0  0  0
  5  6  1  0  0  0  0
  6  7  1  0  0  0  0
  6 13  1  0  0  0  0
  7  8  2  0  0  0  0
  7  9  1  0  0  0  0
  9 10  1  0  0  0  0
  9 14  1  0  0  0  0
 10 11  2  0  0  0  0
M  END
$$$$
ZINC000016968611
 OpenBabel11022112223D

 14 14  0  0  0  0  0  0  0  0999 V2000
    0.0021   -0.0041    0.0020 O   0  0  0  0  0  0  0  0  0  0  0  0
   -0.0145    1.2200    0.0087 C   0  0  0  0  0  0  0  0  0  0  0  0
    1.0372    1.8465    0.0021 O   0  0  0  0  0  0  0  0  0  0  0  0
   -1.2922    1.9347    0.0187 C   0  0  0  0  0  0  0  0  0  0  0  0
   -2.4571    1.2409    0.0204 C   0  0  0  0  0  0  0  0  0  0  0  0
   -2.6172   -0.1335    0.0198 N   0  0  0  0  0  0  0  0  0  0  0  0
   -3.9338   -0.4022    0.0221 C   0  0  0  0  0  0  0  0  0  0  0  0
   -4.4043   -1.5227    0.0229 O   0  0  0  0  0  0  0  0  0  0  0  0
   -4.6626    0.7244    0.0243 N   0  0  0  0  0  0  0  0  0  0  0  0
   -3.8399    1.7940    0.0300 C   0  0  0  0  0  0  0  0  0  0  0  0
   -4.1607    2.9652    0.0337 O   0  0  0  0  0  0  0  0  0  0  0  0
   -1.3068    3.0146    0.0246 H   0  0  0  0  0  0  0  0  0  0  0  0
   -1.9026   -0.7895    0.0177 H   0  0  0  0  0  0  0  0  0  0  0  0
   -5.6318    0.7639    0.0257 H   0  0  0  0  0  0  0  0  0  0  0  0
  1  2  2  0  0  0  0
  2  3  1  0  0  0  0
  2  4  1  0  0  0  0
  4  5  2  0  0  0  0
  4 12  1  0  0  0  0
  5 10  1  0  0  0  0
  5  6  1  0  0  0  0
  6  7  1  0  0  0  0
  6 13  1  0  0  0  0
  7  8  2  0  0  0  0
  7  9  1  0  0  0  0
  9 10  1  0  0  0  0
  9 14  1  0  0  0  0
 10 11  2  0  0  0  0
M  END
$$$$
ZINC000005830089
 OpenBabel11022112223D

 20 21  0  0  1  0  0  0  0  0999 V2000
   -0.0173    1.4248    0.0099 O   0  0  0  0  0  0  0  0  0  0  0  0
    0.0021   -0.0041    0.0020 C   0  0  0  0  0  0  0  0  0  0  0  0
   -1.4333   -0.5336    0.0129 C   0  0  1  0  0  0  0  0  0  0  0  0
   -1.9825   -0.1067    0.8521 H   0  0  0  0  0  0  0  0  0  0  0  0
   -2.1005   -0.1995   -1.2448 O   0  0  0  0  0  0  0  0  0  0  0  0
   -2.9584   -1.2693   -1.4457 C   0  0  1  0  0  0  0  0  0  0  0  0
   -3.6196   -1.3158   -0.5804 H   0  0  0  0  0  0  0  0  0  0  0  0
   -3.6988   -1.7496   -2.5622 N   0  0  0  0  0  0  0  0  0  0  0  0
   -3.7836   -3.1076   -2.3720 C   0  0  0  0  0  0  0  0  0  0  0  0
   -4.6833   -4.1709   -3.3675 S   0  0  0  0  0  0  0  0  0  0  0  0
   -3.0505   -3.5001   -1.2780 O   0  0  0  0  0  0  0  0  0  0  0  0
   -1.9817   -2.5060   -1.2544 C   0  0  2  0  0  0  0  0  0  0  0  0
   -1.2210   -2.6569   -2.0204 H   0  0  0  0  0  0  0  0  0  0  0  0
   -1.4282   -2.0874    0.1134 C   0  0  2  0  0  0  0  0  0  0  0  0
   -0.4174   -2.4695    0.2558 H   0  0  0  0  0  0  0  0  0  0  0  0
   -2.2886   -2.5279    1.1659 O   0  0  0  0  0  0  0  0  0  0  0  0
    0.8606    1.8301    0.0037 H   0  0  0  0  0  0  0  0  0  0  0  0
    0.5123   -0.3556   -0.8948 H   0  0  0  0  0  0  0  0  0  0  0  0
    0.5293   -0.3651    0.8851 H   0  0  0  0  0  0  0  0  0  0  0  0
   -1.9820   -2.2876    2.0510 H   0  0  0  0  0  0  0  0  0  0  0  0
  1  2  1  0  0  0  0
  1 17  1  0  0  0  0
  2  3  1  0  0  0  0
  2 18  1  0  0  0  0
  2 19  1  0  0  0  0
  3  4  1  1  0  0  0
  3 14  1  0  0  0  0
  3  5  1  0  0  0  0
  5  6  1  0  0  0  0
  6  7  1  1  0  0  0
  6 12  1  0  0  0  0
  6  8  1  0  0  0  0
  8  9  1  0  0  0  0
  9 10  2  0  0  0  0
  9 11  1  0  0  0  0
 11 12  1  0  0  0  0
 12 13  1  6  0  0  0
 12 14  1  0  0  0  0
 14 15  1  1  0  0  0
 14 16  1  0  0  0  0
 16 20  1  0  0  0  0
M  END
$$$$
ZINC000005830453
 OpenBabel11022112223D

 20 21  0  0  1  0  0  0  0  0999 V2000
   -0.0173    1.4248    0.0099 O   0  0  0  0  0  0  0  0  0  0  0  0
    0.0021   -0.0041    0.0020 C   0  0  0  0  0  0  0  0  0  0  0  0
   -1.4333   -0.5336    0.0129 C   0  0  2  0  0  0  0  0  0  0  0  0
   -1.9981   -0.0976   -0.8111 H   0  0  0  0  0  0  0  0  0  0  0  0
   -2.0740   -0.2131    1.2818 O   0  0  0  0  0  0  0  0  0  0  0  0
   -2.2035   -1.4065    1.9627 C   0  0  1  0  0  0  0  0  0  0  0  0
   -1.1961   -1.7178    2.2389 H   0  0  0  0  0  0  0  0  0  0  0  0
   -3.0677   -1.8718    2.9953 N   0  0  0  0  0  0  0  0  0  0  0  0
   -3.1319   -3.2318    2.8132 C   0  0  0  0  0  0  0  0  0  0  0  0
   -3.9484   -4.3117    3.8611 S   0  0  0  0  0  0  0  0  0  0  0  0
   -2.4550   -3.6117    1.6797 O   0  0  0  0  0  0  0  0  0  0  0  0
   -2.6060   -2.4365    0.8245 C   0  0  2  0  0  0  0  0  0  0  0  0
   -3.5926   -2.3334    0.3727 H   0  0  0  0  0  0  0  0  0  0  0  0
   -1.4298   -2.0903   -0.1059 C   0  0  2  0  0  0  0  0  0  0  0  0
   -1.6247   -2.4166   -1.1275 H   0  0  0  0  0  0  0  0  0  0  0  0
   -0.2035   -2.6366    0.3837 O   0  0  0  0  0  0  0  0  0  0  0  0
    0.8606    1.8301    0.0037 H   0  0  0  0  0  0  0  0  0  0  0  0
    0.5123   -0.3556   -0.8948 H   0  0  0  0  0  0  0  0  0  0  0  0
    0.5293   -0.3651    0.8851 H   0  0  0  0  0  0  0  0  0  0  0  0
    0.5634   -2.4423   -0.1724 H   0  0  0  0  0  0  0  0  0  0  0  0
  1  2  1  0  0  0  0
  1 17  1  0  0  0  0
  2  3  1  0  0  0  0
  2 18  1  0  0  0  0
  2 19  1  0  0  0  0
  3  4  1  6  0  0  0
  3 14  1  0  0  0  0
  3  5  1  0  0  0  0
  5  6  1  0  0  0  0
  6  7  1  1  0  0  0
  6 12  1  0  0  0  0
  6  8  1  0  0  0  0
  8  9  1  0  0  0  0
  9 10  2  0  0  0  0
  9 11  1  0  0  0  0
 11 12  1  0  0  0  0
 12 13  1  6  0  0  0
 12 14  1  0  0  0  0
 14 15  1  6  0  0  0
 14 16  1  0  0  0  0
 16 20  1  0  0  0  0
M  END
$$$$
ZINC000005828862
 OpenBabel11022112223D

 20 19  0  0  1  0  0  0  0  0999 V2000
    0.0021   -0.0041    0.0020 O   0  0  0  0  0  0  0  0  0  0  0  0
   -0.0189    1.5408    0.0105 P   0  0  1  0  0  0  0  0  0  0  0  0
    1.4306    2.0755   -0.0005 O   0  0  0  0  0  0  0  0  0  0  0  0
   -0.7976    2.0741   -1.2938 O   0  0  0  0  0  0  0  0  0  0  0  0
   -0.8722    2.1287    1.5104 C   0  0  0  0  0  0  0  0  0  0  0  0
   -0.2071    1.5208    2.7469 C   0  0  0  0  0  0  0  0  0  0  0  0
   -0.9232    2.0142    4.0057 C   0  0  1  0  0  0  0  0  0  0  0  0
   -0.9380    3.1041    4.0117 H   0  0  0  0  0  0  0  0  0  0  0  0
   -2.2638    1.5196    4.0159 O   0  0  0  0  0  0  0  0  0  0  0  0
   -0.1832    1.5074    5.2452 C   0  0  0  0  0  0  0  0  0  0  0  0
   -0.7822    2.0626    6.4178 O   0  0  0  0  0  0  0  0  0  0  0  0
   -0.3982    1.7988   -2.1303 H   0  0  0  0  0  0  0  0  0  0  0  0
   -0.8095    3.2157    1.5615 H   0  0  0  0  0  0  0  0  0  0  0  0
   -1.9188    1.8263    1.4751 H   0  0  0  0  0  0  0  0  0  0  0  0
   -0.2697    0.4338    2.6958 H   0  0  0  0  0  0  0  0  0  0  0  0
    0.8395    1.8232    2.7822 H   0  0  0  0  0  0  0  0  0  0  0  0
   -2.3271    0.5546    4.0113 H   0  0  0  0  0  0  0  0  0  0  0  0
   -0.2450    0.4199    5.2859 H   0  0  0  0  0  0  0  0  0  0  0  0
    0.8626    1.8102    5.1932 H   0  0  0  0  0  0  0  0  0  0  0  0
   -0.3629    1.7837    7.2434 H   0  0  0  0  0  0  0  0  0  0  0  0
  2  1  2  6  0  0  0
  2  3  1  0  0  0  0
  2  4  1  0  0  0  0
  2  5  1  0  0  0  0
  4 12  1  0  0  0  0
  5  6  1  0  0  0  0
  5 13  1  0  0  0  0
  5 14  1  0  0  0  0
  6  7  1  0  0  0  0
  6 15  1  0  0  0  0
  6 16  1  0  0  0  0
  7  8  1  1  0  0  0
  7  9  1  0  0  0  0
  7 10  1  0  0  0  0
  9 17  1  0  0  0  0
 10 11  1  0  0  0  0
 10 18  1  0  0  0  0
 10 19  1  0  0  0  0
 11 20  1  0  0  0  0
M  END
$$$$
ZINC000005829894
 OpenBabel11022112223D

 20 21  0  0  1  0  0  0  0  0999 V2000
   -0.0173    1.4248    0.0099 O   0  0  0  0  0  0  0  0  0  0  0  0
    0.0021   -0.0041    0.0020 C   0  0  0  0  0  0  0  0  0  0  0  0
   -1.4333   -0.5336    0.0129 C   0  0  1  0  0  0  0  0  0  0  0  0
   -1.9825   -0.1067    0.8521 H   0  0  0  0  0  0  0  0  0  0  0  0
   -2.1005   -0.1995   -1.2448 O   0  0  0  0  0  0  0  0  0  0  0  0
   -2.9584   -1.2693   -1.4457 C   0  0  1  0  0  0  0  0  0  0  0  0
   -3.6197   -1.3158   -0.5804 H   0  0  0  0  0  0  0  0  0  0  0  0
   -3.6988   -1.7496   -2.5622 N   0  0  0  0  0  0  0  0  0  0  0  0
   -3.7836   -3.1076   -2.3720 C   0  0  0  0  0  0  0  0  0  0  0  0
   -4.6833   -4.1709   -3.3675 S   0  0  0  0  0  0  0  0  0  0  0  0
   -3.0505   -3.5001   -1.2780 O   0  0  0  0  0  0  0  0  0  0  0  0
   -1.9817   -2.5060   -1.2544 C   0  0  2  0  0  0  0  0  0  0  0  0
   -1.2210   -2.6569   -2.0204 H   0  0  0  0  0  0  0  0  0  0  0  0
   -1.4282   -2.0874    0.1134 C   0  0  1  0  0  0  0  0  0  0  0  0
   -2.0862   -2.4204    0.9160 H   0  0  0  0  0  0  0  0  0  0  0  0
   -0.1048   -2.5922    0.3020 O   0  0  0  0  0  0  0  0  0  0  0  0
    0.8606    1.8301    0.0037 H   0  0  0  0  0  0  0  0  0  0  0  0
    0.5123   -0.3556   -0.8948 H   0  0  0  0  0  0  0  0  0  0  0  0
    0.5293   -0.3651    0.8851 H   0  0  0  0  0  0  0  0  0  0  0  0
    0.2894   -2.3545    1.1524 H   0  0  0  0  0  0  0  0  0  0  0  0
  1  2  1  0  0  0  0
  1 17  1  0  0  0  0
  2  3  1  0  0  0  0
  2 18  1  0  0  0  0
  2 19  1  0  0  0  0
  3  4  1  1  0  0  0
  3 14  1  0  0  0  0
  3  5  1  0  0  0  0
  5  6  1  0  0  0  0
  6  7  1  1  0  0  0
  6 12  1  0  0  0  0
  6  8  1  0  0  0  0
  8  9  1  0  0  0  0
  9 10  2  0  0  0  0
  9 11  1  0  0  0  0
 11 12  1  0  0  0  0
 12 13  1  6  0  0  0
 12 14  1  0  0  0  0
 14 15  1  1  0  0  0
 14 16  1  0  0  0  0
 16 20  1  0  0  0  0
M  END
$$$$
ZINC000005830396
 OpenBabel11022112223D

 20 21  0  0  1  0  0  0  0  0999 V2000
   -0.0173    1.4248    0.0099 O   0  0  0  0  0  0  0  0  0  0  0  0
    0.0021   -0.0041    0.0020 C   0  0  0  0  0  0  0  0  0  0  0  0
   -1.4333   -0.5336    0.0129 C   0  0  2  0  0  0  0  0  0  0  0  0
   -1.9981   -0.0976   -0.8111 H   0  0  0  0  0  0  0  0  0  0  0  0
   -2.0740   -0.2131    1.2818 O   0  0  0  0  0  0  0  0  0  0  0  0
   -2.2035   -1.4065    1.9627 C   0  0  1  0  0  0  0  0  0  0  0  0
   -1.1961   -1.7178    2.2389 H   0  0  0  0  0  0  0  0  0  0  0  0
   -3.0677   -1.8718    2.9953 N   0  0  0  0  0  0  0  0  0  0  0  0
   -3.1319   -3.2318    2.8132 C   0  0  0  0  0  0  0  0  0  0  0  0
   -3.9484   -4.3117    3.8611 S   0  0  0  0  0  0  0  0  0  0  0  0
   -2.4550   -3.6117    1.6797 O   0  0  0  0  0  0  0  0  0  0  0  0
   -2.6060   -2.4365    0.8245 C   0  0  2  0  0  0  0  0  0  0  0  0
   -3.5926   -2.3334    0.3727 H   0  0  0  0  0  0  0  0  0  0  0  0
   -1.4298   -2.0903   -0.1059 C   0  0  1  0  0  0  0  0  0  0  0  0
   -0.4943   -2.5063    0.2680 H   0  0  0  0  0  0  0  0  0  0  0  0
   -1.6848   -2.5190   -1.4450 O   0  0  0  0  0  0  0  0  0  0  0  0
    0.8606    1.8301    0.0037 H   0  0  0  0  0  0  0  0  0  0  0  0
    0.5123   -0.3556   -0.8948 H   0  0  0  0  0  0  0  0  0  0  0  0
    0.5293   -0.3651    0.8851 H   0  0  0  0  0  0  0  0  0  0  0  0
   -0.9692   -2.3206   -2.0645 H   0  0  0  0  0  0  0  0  0  0  0  0
  1  2  1  0  0  0  0
  1 17  1  0  0  0  0
  2  3  1  0  0  0  0
  2 18  1  0  0  0  0
  2 19  1  0  0  0  0
  3  4  1  6  0  0  0
  3 14  1  0  0  0  0
  3  5  1  0  0  0  0
  5  6  1  0  0  0  0
  6  7  1  1  0  0  0
  6 12  1  0  0  0  0
  6  8  1  0  0  0  0
  8  9  1  0  0  0  0
  9 10  2  0  0  0  0
  9 11  1  0  0  0  0
 11 12  1  0  0  0  0
 12 13  1  6  0  0  0
 12 14  1  0  0  0  0
 14 15  1  1  0  0  0
 14 16  1  0  0  0  0
 16 20  1  0  0  0  0
M  END
$$$$
ZINC000037263060
 OpenBabel11022112223D

 21 21  0  0  1  0  0  0  0  0999 V2000
    0.0021   -0.0041    0.0020 O   0  0  0  0  0  0  0  0  0  0  0  0
   -0.0145    1.2150    0.0087 C   0  0  0  0  0  0  0  0  0  0  0  0
    1.0330    1.8389    0.0021 O   0  0  0  0  0  0  0  0  0  0  0  0
   -1.3296    1.9507    0.0190 C   0  0  1  0  0  0  0  0  0  0  0  0
   -1.3209    2.7004    0.8102 H   0  0  0  0  0  0  0  0  0  0  0  0
   -1.5414    2.6369   -1.3323 C   0  0  0  0  0  0  0  0  0  0  0  0
   -2.8325    3.3372   -1.3291 N   0  3  0  0  0  0  0  0  0  0  0  0
   -2.8416    4.0220   -0.5881 H   0  0  0  0  0  0  0  0  0  0  0  0
   -2.9663    3.7997   -2.2158 H   0  0  0  0  0  0  0  0  0  0  0  0
   -3.9160    2.3691   -1.1140 C   0  0  2  0  0  0  0  0  0  0  0  0
   -3.8985    1.6220   -1.9075 H   0  0  0  0  0  0  0  0  0  0  0  0
   -5.2411    3.0868   -1.1289 C   0  0  0  0  0  0  0  0  0  0  0  0
   -6.2798    2.4486   -1.1508 O   0  0  0  0  0  0  0  0  0  0  0  0
   -5.2745    4.3055   -1.1191 O   0  0  0  0  0  0  0  0  0  0  0  0
   -3.7241    1.6807    0.2391 C   0  0  0  0  0  0  0  0  0  0  0  0
   -2.4227    0.9978    0.2584 N   0  0  0  0  0  0  0  0  0  0  0  0
   -0.7393    3.3545   -1.5050 H   0  0  0  0  0  0  0  0  0  0  0  0
   -1.5360    1.8884   -2.1247 H   0  0  0  0  0  0  0  0  0  0  0  0
   -3.7552    2.4259    1.0340 H   0  0  0  0  0  0  0  0  0  0  0  0
   -4.5197    0.9516    0.3923 H   0  0  0  0  0  0  0  0  0  0  0  0
   -2.3993    0.2452   -0.4132 H   0  0  0  0  0  0  0  0  0  0  0  0
  1  2  2  0  0  0  0
  2  3  1  0  0  0  0
  2  4  1  0  0  0  0
  4  5  1  1  0  0  0
  4 16  1  0  0  0  0
  4  6  1  0  0  0  0
  6  7  1  0  0  0  0
  6 17  1  0  0  0  0
  6 18  1  0  0  0  0
  7  8  1  0  0  0  0
  7  9  1  0  0  0  0
  7 10  1  0  0  0  0
 10 11  1  6  0  0  0
 10 12  1  0  0  0  0
 10 15  1  0  0  0  0
 12 13  2  0  0  0  0
 12 14  1  0  0  0  0
 15 16  1  0  0  0  0
 15 19  1  0  0  0  0
 15 20  1  0  0  0  0
 16 21  1  0  0  0  0
M  CHG  1   7   1
M  END
$$$$
ZINC000008652474
 OpenBabel11022112223D

 10 10  0  0  0  0  0  0  0  0999 V2000
    0.0021   -0.0041    0.0020 O   0  0  0  0  0  0  0  0  0  0  0  0
   -0.0144    1.2101    0.0087 C   0  0  0  0  0  0  0  0  0  0  0  0
   -1.3021    1.9568    0.0312 C   0  0  0  0  0  0  0  0  0  0  0  0
   -1.2861    3.2559    0.0379 N   0  0  0  0  0  0  0  0  0  0  0  0
   -0.1306    3.9402    0.0248 C   0  0  0  0  0  0  0  0  0  0  0  0
   -0.1644    5.1554    0.0317 O   0  0  0  0  0  0  0  0  0  0  0  0
    1.0622    3.3209    0.0047 N   0  0  0  0  0  0  0  0  0  0  0  0
    1.1372    1.9204    0.0015 N   0  0  0  0  0  0  0  0  0  0  0  0
   -2.2411    1.4234    0.0417 H   0  0  0  0  0  0  0  0  0  0  0  0
    1.9964    1.4705   -0.0129 H   0  0  0  0  0  0  0  0  0  0  0  0
  1  2  2  0  0  0  0
  2  8  1  0  0  0  0
  2  3  1  0  0  0  0
  3  4  2  0  0  0  0
  3  9  1  0  0  0  0
  4  5  1  0  0  0  0
  5  6  2  0  0  0  0
  5  7  1  0  0  0  0
  7  8  1  0  0  0  0
  8 10  1  0  0  0  0
M  END
$$$$
ZINC000100028592
 OpenBabel11022112223D

 24 25  0  0  0  0  0  0  0  0999 V2000
   -2.3014    3.8916    0.0766 O   0  0  0  0  0  0  0  0  0  0  0  0
   -1.2400    3.2892    0.0479 C   0  0  0  0  0  0  0  0  0  0  0  0
   -1.2157    1.8894    0.0277 C   0  0  0  0  0  0  0  0  0  0  0  0
    0.0093    1.2453   -0.0046 C   0  0  0  0  0  0  0  0  0  0  0  0
    0.0651   -0.1067   -0.0253 O   0  0  0  0  0  0  0  0  0  0  0  0
    1.1366    1.9629   -0.0158 N   0  0  0  0  0  0  0  0  0  0  0  0
    1.1077    3.2792    0.0034 C   0  0  0  0  0  0  0  0  0  0  0  0
    2.2861    3.9763   -0.0095 N   0  0  0  0  0  0  0  0  0  0  0  0
    3.5794    3.2792    0.0720 C   0  0  0  0  0  0  0  0  0  0  0  0
    4.4755    3.7885   -1.0627 C   0  0  0  0  0  0  0  0  0  0  0  0
    4.5205    5.2169   -1.0219 O   0  0  0  0  0  0  0  0  0  0  0  0
    3.2552    5.8485   -1.2317 C   0  0  0  0  0  0  0  0  0  0  0  0
    2.2968    5.4442   -0.1113 C   0  0  0  0  0  0  0  0  0  0  0  0
   -0.0697    3.9609    0.0296 N   0  0  0  0  0  0  0  0  0  0  0  0
   -2.1352    1.3229    0.0374 H   0  0  0  0  0  0  0  0  0  0  0  0
    4.0494    3.4884    1.0330 H   0  0  0  0  0  0  0  0  0  0  0  0
    3.4252    2.2055   -0.0358 H   0  0  0  0  0  0  0  0  0  0  0  0
    5.4821    3.3889   -0.9390 H   0  0  0  0  0  0  0  0  0  0  0  0
    4.0694    3.4643   -2.0208 H   0  0  0  0  0  0  0  0  0  0  0  0
    3.3838    6.9309   -1.2297 H   0  0  0  0  0  0  0  0  0  0  0  0
    2.8447    5.5317   -2.1905 H   0  0  0  0  0  0  0  0  0  0  0  0
    1.2937    5.8053   -0.3383 H   0  0  0  0  0  0  0  0  0  0  0  0
    2.6358    5.8698    0.8331 H   0  0  0  0  0  0  0  0  0  0  0  0
   -0.0676    4.9308    0.0431 H   0  0  0  0  0  0  0  0  0  0  0  0
  1  2  2  0  0  0  0
  2 14  1  0  0  0  0
  2  3  1  0  0  0  0
  3  4  2  0  0  0  0
  3 15  1  0  0  0  0
  4  5  1  0  0  0  0
  4  6  1  0  0  0  0
  6  7  2  0  0  0  0
  7  8  1  0  0  0  0
  7 14  1  0  0  0  0
  8 13  1  0  0  0  0
  8  9  1  0  0  0  0
  9 10  1  0  0  0  0
  9 16  1  0  0  0  0
  9 17  1  0  0  0  0
 10 11  1  0  0  0  0
 10 18  1  0  0  0  0
 10 19  1  0  0  0  0
 11 12  1  0  0  0  0
 12 13  1  0  0  0  0
 12 20  1  0  0  0  0
 12 21  1  0  0  0  0
 13 22  1  0  0  0  0
 13 23  1  0  0  0  0
 14 24  1  0  0  0  0
M  END
$$$$
ZINC000204337001
 OpenBabel11022112223D

 21 22  0  0  0  0  0  0  0  0999 V2000
   -0.0187    1.5258    0.0104 C   0  0  0  0  0  0  0  0  0  0  0  0
    0.0021   -0.0041    0.0020 C   0  0  0  0  0  0  0  0  0  0  0  0
   -1.3723   -0.5112    0.0124 N   0  0  0  0  0  0  0  0  0  0  0  0
   -2.1110   -0.7871    1.1062 C   0  0  0  0  0  0  0  0  0  0  0  0
   -1.7443   -0.6551    2.2592 O   0  0  0  0  0  0  0  0  0  0  0  0
   -3.3207   -1.2316    0.7156 N   0  0  0  0  0  0  0  0  0  0  0  0
   -3.3658   -1.2437   -0.6550 C   0  0  0  0  0  0  0  0  0  0  0  0
   -2.1581   -0.7910   -1.1105 C   0  0  0  0  0  0  0  0  0  0  0  0
   -1.9343   -0.7026   -2.4992 C   0  0  0  0  0  0  0  0  0  0  0  0
   -0.8655   -0.3024   -2.9266 O   0  0  0  0  0  0  0  0  0  0  0  0
   -2.9159   -1.0662   -3.3503 N   0  0  0  0  0  0  0  0  0  0  0  0
   -4.0975   -1.5091   -2.8840 C   0  0  0  0  0  0  0  0  0  0  0  0
   -4.9664   -1.8313   -3.6713 O   0  0  0  0  0  0  0  0  0  0  0  0
   -4.3376   -1.5988   -1.5623 N   0  0  0  0  0  0  0  0  0  0  0  0
    1.0039    1.9031    0.0027 H   0  0  0  0  0  0  0  0  0  0  0  0
   -0.5459    1.8868   -0.8726 H   0  0  0  0  0  0  0  0  0  0  0  0
   -0.5289    1.8773    0.9072 H   0  0  0  0  0  0  0  0  0  0  0  0
    0.5123   -0.3556   -0.8948 H   0  0  0  0  0  0  0  0  0  0  0  0
    0.5293   -0.3651    0.8851 H   0  0  0  0  0  0  0  0  0  0  0  0
   -4.0417   -1.4993    1.3067 H   0  0  0  0  0  0  0  0  0  0  0  0
   -5.1969   -1.9213   -1.2484 H   0  0  0  0  0  0  0  0  0  0  0  0
  1  2  1  0  0  0  0
  1 15  1  0  0  0  0
  1 16  1  0  0  0  0
  1 17  1  0  0  0  0
  2  3  1  0  0  0  0
  2 18  1  0  0  0  0
  2 19  1  0  0  0  0
  3  8  1  0  0  0  0
  3  4  1  0  0  0  0
  4  5  2  0  0  0  0
  4  6  1  0  0  0  0
  6  7  1  0  0  0  0
  6 20  1  0  0  0  0
  7 14  1  0  0  0  0
  7  8  2  0  0  0  0
  8  9  1  0  0  0  0
  9 10  2  0  0  0  0
  9 11  1  0  0  0  0
 11 12  1  0  0  0  0
 12 13  2  0  0  0  0
 12 14  1  0  0  0  0
 14 21  1  0  0  0  0
M  END
$$$$
ZINC000001682349
 OpenBabel11022112223D

 16 17  0  0  0  0  0  0  0  0999 V2000
    2.2126    1.0541   -0.0134 O   0  0  0  0  0  0  0  0  0  0  0  0
    1.1502    1.6497   -0.0001 C   0  0  0  0  0  0  0  0  0  0  0  0
    1.1265    3.0633    0.0073 C   0  0  0  0  0  0  0  0  0  0  0  0
   -0.0772    3.7038    0.0218 C   0  0  0  0  0  0  0  0  0  0  0  0
   -0.1362    5.1794    0.0293 C   0  0  0  0  0  0  0  0  0  0  0  0
    0.9004    6.0204    0.0292 N   0  0  0  0  0  0  0  0  0  0  0  0
    0.4262    7.2192    0.0335 N   0  0  0  0  0  0  0  0  0  0  0  0
   -0.8596    7.1678    0.0455 N   0  0  0  0  0  0  0  0  0  0  0  0
   -1.2366    5.9349    0.0433 N   0  0  0  0  0  0  0  0  0  0  0  0
   -1.2387    2.9611    0.0289 N   0  0  0  0  0  0  0  0  0  0  0  0
   -1.1884    1.6167    0.0165 C   0  0  0  0  0  0  0  0  0  0  0  0
   -2.2239    0.9794    0.0183 O   0  0  0  0  0  0  0  0  0  0  0  0
   -0.0111    0.9658    0.0074 N   0  0  0  0  0  0  0  0  0  0  0  0
    2.0476    3.6272    0.0012 H   0  0  0  0  0  0  0  0  0  0  0  0
   -2.0981    3.4109    0.0392 H   0  0  0  0  0  0  0  0  0  0  0  0
    0.0021   -0.0041    0.0020 H   0  0  0  0  0  0  0  0  0  0  0  0
  1  2  2  0  0  0  0
  2 13  1  0  0  0  0
  2  3  1  0  0  0  0
  3  4  2  0  0  0  0
  3 14  1  0  0  0  0
  4  5  1  0  0  0  0
  4 10  1  0  0  0  0
  5  9  1  0  0  0  0
  5  6  2  0  0  0  0
  6  7  1  0  0  0  0
  7  8  2  0  0  0  0
  8  9  1  0  0  0  0
 10 11  1  0  0  0  0
 10 15  1  0  0  0  0
 11 12  2  0  0  0  0
 11 13  1  0  0  0  0
 13 16  1  0  0  0  0
M  END
$$$$
ZINC000001619978
 OpenBabel11022112223D

 15 16  0  0  1  0  0  0  0  0999 V2000
    0.0021   -0.0041    0.0020 O   0  0  0  0  0  0  0  0  0  0  0  0
   -0.0144    1.2108    0.0087 C   0  0  0  0  0  0  0  0  0  0  0  0
   -1.1168    1.9827    0.0293 N   0  0  0  0  0  0  0  0  0  0  0  0
   -0.7497    3.2787    0.0315 C   0  0  0  0  0  0  0  0  0  0  0  0
   -1.5028    4.2326    0.0483 O   0  0  0  0  0  0  0  0  0  0  0  0
    0.5915    3.3349    0.0122 N   0  0  0  0  0  0  0  0  0  0  0  0
    1.7759    4.2007   -0.0004 C   0  0  2  0  0  0  0  0  0  0  0  0
    1.8067    4.8167    0.8984 H   0  0  0  0  0  0  0  0  0  0  0  0
    1.7799    5.0238   -1.1685 O   0  0  0  0  0  0  0  0  0  0  0  0
    2.9129    3.2673   -0.0226 N   0  0  0  0  0  0  0  0  0  0  0  0
    2.4134    2.0196   -0.0223 C   0  0  0  0  0  0  0  0  0  0  0  0
    3.0959    1.0140   -0.0376 O   0  0  0  0  0  0  0  0  0  0  0  0
    1.0710    2.0157    0.0027 N   0  0  0  0  0  0  0  0  0  0  0  0
    2.5412    5.6171   -1.2290 H   0  0  0  0  0  0  0  0  0  0  0  0
    3.8524    3.5085   -0.0354 H   0  0  0  0  0  0  0  0  0  0  0  0
  1  2  2  0  0  0  0
  2 13  1  0  0  0  0
  2  3  1  0  0  0  0
  3  4  1  0  0  0  0
  4  5  2  0  0  0  0
  4  6  1  0  0  0  0
  6 13  1  0  0  0  0
  6  7  1  0  0  0  0
  7  8  1  1  0  0  0
  7  9  1  0  0  0  0
  7 10  1  0  0  0  0
  9 14  1  0  0  0  0
 10 11  1  0  0  0  0
 10 15  1  0  0  0  0
 11 12  2  0  0  0  0
 11 13  1  0  0  0  0
M  END
$$$$
ZINC000005885539
 OpenBabel11022112223D

 15 16  0  0  1  0  0  0  0  0999 V2000
    0.0021   -0.0041    0.0020 O   0  0  0  0  0  0  0  0  0  0  0  0
   -0.0144    1.2108    0.0087 C   0  0  0  0  0  0  0  0  0  0  0  0
   -1.1168    1.9827    0.0293 N   0  0  0  0  0  0  0  0  0  0  0  0
   -0.7497    3.2787    0.0315 C   0  0  0  0  0  0  0  0  0  0  0  0
   -1.5028    4.2326    0.0483 O   0  0  0  0  0  0  0  0  0  0  0  0
    0.5915    3.3349    0.0122 N   0  0  0  0  0  0  0  0  0  0  0  0
    1.7759    4.2007   -0.0004 C   0  0  1  0  0  0  0  0  0  0  0  0
    1.7801    4.8270   -0.8925 H   0  0  0  0  0  0  0  0  0  0  0  0
    1.8147    5.0104    1.1765 O   0  0  0  0  0  0  0  0  0  0  0  0
    2.9129    3.2673   -0.0226 N   0  0  0  0  0  0  0  0  0  0  0  0
    2.4134    2.0196   -0.0223 C   0  0  0  0  0  0  0  0  0  0  0  0
    3.0959    1.0140   -0.0376 O   0  0  0  0  0  0  0  0  0  0  0  0
    1.0710    2.0157    0.0027 N   0  0  0  0  0  0  0  0  0  0  0  0
    2.5775    5.6030    1.2212 H   0  0  0  0  0  0  0  0  0  0  0  0
    3.8524    3.5085   -0.0354 H   0  0  0  0  0  0  0  0  0  0  0  0
  1  2  2  0  0  0  0
  2 13  1  0  0  0  0
  2  3  1  0  0  0  0
  3  4  1  0  0  0  0
  4  5  2  0  0  0  0
  4  6  1  0  0  0  0
  6 13  1  0  0  0  0
  6  7  1  0  0  0  0
  7  8  1  6  0  0  0
  7  9  1  0  0  0  0
  7 10  1  0  0  0  0
  9 14  1  0  0  0  0
 10 11  1  0  0  0  0
 10 15  1  0  0  0  0
 11 12  2  0  0  0  0
 11 13  1  0  0  0  0
M  END
$$$$
ZINC000009873810
 OpenBabel11022112223D

 23 23  0  0  0  0  0  0  0  0999 V2000
    0.0021   -0.0041    0.0020 O   0  0  0  0  0  0  0  0  0  0  0  0
   -0.0144    1.2086    0.0087 C   0  0  0  0  0  0  0  0  0  0  0  0
    1.1435    1.8983    0.0013 N   0  0  0  0  0  0  0  0  0  0  0  0
    2.4379    1.2002   -0.0209 C   0  0  0  0  0  0  0  0  0  0  0  0
    3.2851    1.7816   -1.1578 C   0  0  0  0  0  0  0  0  0  0  0  0
    3.3686    3.2403   -1.0053 N   0  0  0  0  0  0  0  0  0  0  0  0
    4.3109    3.8176   -1.9732 C   0  0  0  0  0  0  0  0  0  0  0  0
    4.5575    5.2647   -1.6323 C   0  0  0  0  0  0  0  0  0  0  0  0
    3.9999    5.7684   -0.6721 O   0  0  0  0  0  0  0  0  0  0  0  0
    5.3145    5.9318   -2.3167 O   0  0  0  0  0  0  0  0  0  0  0  0
    2.0443    3.8650   -1.1229 C   0  0  0  0  0  0  0  0  0  0  0  0
    1.1462    3.3691    0.0092 C   0  0  0  0  0  0  0  0  0  0  0  0
   -0.9569    1.7358    0.0160 H   0  0  0  0  0  0  0  0  0  0  0  0
    2.9500    1.3481    0.9299 H   0  0  0  0  0  0  0  0  0  0  0  0
    2.2769    0.1358   -0.1916 H   0  0  0  0  0  0  0  0  0  0  0  0
    4.2870    1.3540   -1.1201 H   0  0  0  0  0  0  0  0  0  0  0  0
    2.8226    1.5418   -2.1153 H   0  0  0  0  0  0  0  0  0  0  0  0
    5.2524    3.2697   -1.9348 H   0  0  0  0  0  0  0  0  0  0  0  0
    3.8902    3.7472   -2.9763 H   0  0  0  0  0  0  0  0  0  0  0  0
    2.1464    4.9484   -1.0600 H   0  0  0  0  0  0  0  0  0  0  0  0
    1.5991    3.5963   -2.0809 H   0  0  0  0  0  0  0  0  0  0  0  0
    0.1318    3.7395   -0.1391 H   0  0  0  0  0  0  0  0  0  0  0  0
    1.5324    3.7235    0.9649 H   0  0  0  0  0  0  0  0  0  0  0  0
  1  2  2  0  0  0  0
  2  3  1  0  0  0  0
  2 13  1  0  0  0  0
  3 12  1  0  0  0  0
  3  4  1  0  0  0  0
  4  5  1  0  0  0  0
  4 14  1  0  0  0  0
  4 15  1  0  0  0  0
  5  6  1  0  0  0  0
  5 16  1  0  0  0  0
  5 17  1  0  0  0  0
  6  7  1  0  0  0  0
  6 11  1  0  0  0  0
  7  8  1  0  0  0  0
  7 18  1  0  0  0  0
  7 19  1  0  0  0  0
  8  9  2  0  0  0  0
  8 10  1  0  0  0  0
 11 12  1  0  0  0  0
 11 20  1  0  0  0  0
 11 21  1  0  0  0  0
 12 22  1  0  0  0  0
 12 23  1  0  0  0  0
M  END
$$$$
ZINC000002391067
 OpenBabel11022112223D

 23 22  0  0  1  0  0  0  0  0999 V2000
   -0.0187    1.5258    0.0104 C   0  0  0  0  0  0  0  0  0  0  0  0
    0.0021   -0.0041    0.0020 C   0  0  1  0  0  0  0  0  0  0  0  0
    0.5123   -0.3556   -0.8948 H   0  0  0  0  0  0  0  0  0  0  0  0
    0.6932   -0.4774    1.1597 O   0  0  0  0  0  0  0  0  0  0  0  0
   -1.4333   -0.5336    0.0129 C   0  0  2  0  0  0  0  0  0  0  0  0
   -1.9334   -0.2470   -0.9122 H   0  0  0  0  0  0  0  0  0  0  0  0
   -2.1568    0.0360    1.1574 N   0  0  0  0  0  0  0  0  0  0  0  0
   -1.4136   -2.0361    0.1285 C   0  0  0  0  0  0  0  0  0  0  0  0
   -1.6093   -2.5643    1.2025 O   0  0  0  0  0  0  0  0  0  0  0  0
   -1.1784   -2.7928   -0.9617 N   0  0  0  0  0  0  0  0  0  0  0  0
   -1.1592   -4.2533   -0.8494 C   0  0  0  0  0  0  0  0  0  0  0  0
   -0.8770   -4.8575   -2.2009 C   0  0  0  0  0  0  0  0  0  0  0  0
   -0.7077   -4.1350   -3.1682 O   0  0  0  0  0  0  0  0  0  0  0  0
   -0.8181   -6.0687   -2.3269 O   0  0  0  0  0  0  0  0  0  0  0  0
    1.0039    1.9031    0.0027 H   0  0  0  0  0  0  0  0  0  0  0  0
   -0.5459    1.8868   -0.8726 H   0  0  0  0  0  0  0  0  0  0  0  0
   -0.5289    1.8773    0.9072 H   0  0  0  0  0  0  0  0  0  0  0  0
    0.2938   -0.2021    1.9962 H   0  0  0  0  0  0  0  0  0  0  0  0
   -1.7125   -0.2157    2.0277 H   0  0  0  0  0  0  0  0  0  0  0  0
   -2.2399    1.0378    1.0704 H   0  0  0  0  0  0  0  0  0  0  0  0
   -1.0218   -2.3703   -1.8208 H   0  0  0  0  0  0  0  0  0  0  0  0
   -0.3811   -4.5536   -0.1476 H   0  0  0  0  0  0  0  0  0  0  0  0
   -2.1271   -4.6029   -0.4901 H   0  0  0  0  0  0  0  0  0  0  0  0
  1  2  1  0  0  0  0
  1 15  1  0  0  0  0
  1 16  1  0  0  0  0
  1 17  1  0  0  0  0
  2  3  1  6  0  0  0
  2  4  1  0  0  0  0
  2  5  1  0  0  0  0
  4 18  1  0  0  0  0
  5  6  1  6  0  0  0
  5  7  1  0  0  0  0
  5  8  1  0  0  0  0
  7 19  1  0  0  0  0
  7 20  1  0  0  0  0
  8  9  2  0  0  0  0
  8 10  1  0  0  0  0
 10 11  1  0  0  0  0
 10 21  1  0  0  0  0
 11 12  1  0  0  0  0
 11 22  1  0  0  0  0
 11 23  1  0  0  0  0
 12 13  2  0  0  0  0
 12 14  1  0  0  0  0
M  END
$$$$
ZINC000050027157
 OpenBabel11022112223D

 26 25  0  0  1  0  0  0  0  0999 V2000
   -0.0187    1.5258    0.0104 C   0  0  0  0  0  0  0  0  0  0  0  0
    0.0021   -0.0041    0.0020 C   0  0  1  0  0  0  0  0  0  0  0  0
   -1.0205   -0.3814    0.0098 H   0  0  0  0  0  0  0  0  0  0  0  0
    0.6878   -0.4765   -1.2033 N   0  0  0  0  0  0  0  0  0  0  0  0
    0.0062   -0.6081   -2.3585 C   0  0  0  0  0  0  0  0  0  0  0  0
   -1.1748   -0.3355   -2.4003 O   0  0  0  0  0  0  0  0  0  0  0  0
    0.7116   -1.0941   -3.5984 C   0  0  1  0  0  0  0  0  0  0  0  0
    1.4045   -1.8925   -3.3329 H   0  0  0  0  0  0  0  0  0  0  0  0
   -0.2782   -1.6035   -4.5570 N   0  0  0  0  0  0  0  0  0  0  0  0
    1.4859    0.0636   -4.2316 C   0  0  1  0  0  0  0  0  0  0  0  0
    2.2787    0.3833   -3.5554 H   0  0  0  0  0  0  0  0  0  0  0  0
    2.0995   -0.3968   -5.5554 C   0  0  0  0  0  0  0  0  0  0  0  0
    0.5966    1.1558   -4.4731 O   0  0  0  0  0  0  0  0  0  0  0  0
    0.7309   -0.5033    1.2229 C   0  0  0  0  0  0  0  0  0  0  0  0
    0.2279   -0.3789    2.3265 O   0  0  0  0  0  0  0  0  0  0  0  0
    1.8236   -1.0316    1.1070 O   0  0  0  0  0  0  0  0  0  0  0  0
    1.0039    1.9031    0.0027 H   0  0  0  0  0  0  0  0  0  0  0  0
   -0.5459    1.8868   -0.8726 H   0  0  0  0  0  0  0  0  0  0  0  0
   -0.5289    1.8773    0.9072 H   0  0  0  0  0  0  0  0  0  0  0  0
    1.6324   -0.6946   -1.1699 H   0  0  0  0  0  0  0  0  0  0  0  0
   -0.9326   -0.8816   -4.8190 H   0  0  0  0  0  0  0  0  0  0  0  0
    0.1737   -1.9944   -5.3701 H   0  0  0  0  0  0  0  0  0  0  0  0
    1.3066   -0.7165   -6.2316 H   0  0  0  0  0  0  0  0  0  0  0  0
    2.6511    0.4281   -6.0065 H   0  0  0  0  0  0  0  0  0  0  0  0
    2.7778   -1.2298   -5.3712 H   0  0  0  0  0  0  0  0  0  0  0  0
   -0.1354    0.9429   -5.0681 H   0  0  0  0  0  0  0  0  0  0  0  0
  1  2  1  0  0  0  0
  1 17  1  0  0  0  0
  1 18  1  0  0  0  0
  1 19  1  0  0  0  0
  2  3  1  1  0  0  0
  2  4  1  0  0  0  0
  2 14  1  0  0  0  0
  4  5  1  0  0  0  0
  4 20  1  0  0  0  0
  5  6  2  0  0  0  0
  5  7  1  0  0  0  0
  7  8  1  1  0  0  0
  7  9  1  0  0  0  0
  7 10  1  0  0  0  0
  9 21  1  0  0  0  0
  9 22  1  0  0  0  0
 10 11  1  1  0  0  0
 10 12  1  0  0  0  0
 10 13  1  0  0  0  0
 12 23  1  0  0  0  0
 12 24  1  0  0  0  0
 12 25  1  0  0  0  0
 13 26  1  0  0  0  0
 14 15  2  0  0  0  0
 14 16  1  0  0  0  0
M  END
$$$$
ZINC000005812668
 OpenBabel11022112223D

 22 22  0  0  1  0  0  0  0  0999 V2000
    0.7801   -0.3917    3.6550 O   0  0  0  0  0  0  0  0  0  0  0  0
    0.0259   -0.0175    2.5003 C   0  0  0  0  0  0  0  0  0  0  0  0
    0.7421   -0.5109    1.2415 C   0  0  1  0  0  0  0  0  0  0  0  0
    1.7647   -0.1336    1.2338 H   0  0  0  0  0  0  0  0  0  0  0  0
    0.7614   -1.9398    1.2337 O   0  0  0  0  0  0  0  0  0  0  0  0
    0.0021   -0.0041    0.0020 C   0  0  1  0  0  0  0  0  0  0  0  0
   -1.0205   -0.3814    0.0098 H   0  0  0  0  0  0  0  0  0  0  0  0
   -0.0173    1.4248    0.0099 O   0  0  0  0  0  0  0  0  0  0  0  0
    0.7182   -0.4975   -1.2568 C   0  0  2  0  0  0  0  0  0  0  0  0
    0.6556   -1.5845   -1.3079 H   0  0  0  0  0  0  0  0  0  0  0  0
    2.0903   -0.1010   -1.2105 O   0  0  0  0  0  0  0  0  0  0  0  0
    0.0631    0.1013   -2.4747 C   0  0  0  0  0  0  0  0  0  0  0  0
    0.1764    1.3516   -2.8986 N   0  0  0  0  0  0  0  0  0  0  0  0
   -0.5316    1.4656   -3.9701 N   0  0  0  0  0  0  0  0  0  0  0  0
   -1.0898    0.3339   -4.2262 N   0  0  0  0  0  0  0  0  0  0  0  0
   -0.7416   -0.5197   -3.3248 N   0  0  0  0  0  0  0  0  0  0  0  0
    0.3842   -0.1107    4.4914 H   0  0  0  0  0  0  0  0  0  0  0  0
   -0.0674    1.0679    2.4634 H   0  0  0  0  0  0  0  0  0  0  0  0
   -0.9661   -0.4659    2.5533 H   0  0  0  0  0  0  0  0  0  0  0  0
   -0.1165   -2.3450    1.2399 H   0  0  0  0  0  0  0  0  0  0  0  0
    0.8606    1.8301    0.0037 H   0  0  0  0  0  0  0  0  0  0  0  0
    2.2219    0.8558   -1.1639 H   0  0  0  0  0  0  0  0  0  0  0  0
  1  2  1  0  0  0  0
  1 17  1  0  0  0  0
  2  3  1  0  0  0  0
  2 18  1  0  0  0  0
  2 19  1  0  0  0  0
  3  4  1  6  0  0  0
  3  5  1  0  0  0  0
  3  6  1  0  0  0  0
  5 20  1  0  0  0  0
  6  7  1  1  0  0  0
  6  8  1  0  0  0  0
  6  9  1  0  0  0  0
  8 21  1  0  0  0  0
  9 10  1  6  0  0  0
  9 11  1  0  0  0  0
  9 12  1  0  0  0  0
 11 22  1  0  0  0  0
 12 16  1  0  0  0  0
 12 13  2  0  0  0  0
 13 14  1  0  0  0  0
 14 15  2  0  0  0  0
 15 16  1  0  0  0  0
M  END
$$$$
ZINC000038788811
 OpenBabel11022112223D

 17 16  0  0  1  0  0  0  0  0999 V2000
   -0.0187    1.5258    0.0104 C   0  0  0  0  0  0  0  0  0  0  0  0
    0.0021   -0.0041    0.0020 C   0  0  1  0  0  0  0  0  0  0  0  0
    0.5123   -0.3556   -0.8948 H   0  0  0  0  0  0  0  0  0  0  0  0
    0.6932   -0.4774    1.1597 O   0  0  0  0  0  0  0  0  0  0  0  0
   -1.4333   -0.5336    0.0129 C   0  0  2  0  0  0  0  0  0  0  0  0
   -1.9435   -0.1821    0.9097 H   0  0  0  0  0  0  0  0  0  0  0  0
   -1.4139   -1.9625    0.0050 O   0  0  0  0  0  0  0  0  0  0  0  0
   -2.3150    0.0702   -1.4640 P   0  0  2  0  0  0  0  0  0  0  0  0
   -1.5919   -0.4280   -2.7352 O   0  0  0  0  0  0  0  0  0  0  0  0
   -2.3360    1.6151   -1.4555 O   0  0  0  0  0  0  0  0  0  0  0  0
   -3.8254   -0.4870   -1.4526 O   0  0  0  0  0  0  0  0  0  0  0  0
    1.0039    1.9031    0.0027 H   0  0  0  0  0  0  0  0  0  0  0  0
   -0.5459    1.8868   -0.8726 H   0  0  0  0  0  0  0  0  0  0  0  0
   -0.5289    1.8773    0.9072 H   0  0  0  0  0  0  0  0  0  0  0  0
    1.6114   -0.1800    1.2187 H   0  0  0  0  0  0  0  0  0  0  0  0
   -0.9743   -2.3456   -0.7663 H   0  0  0  0  0  0  0  0  0  0  0  0
   -4.3546   -0.2047   -2.2111 H   0  0  0  0  0  0  0  0  0  0  0  0
  1  2  1  0  0  0  0
  1 12  1  0  0  0  0
  1 13  1  0  0  0  0
  1 14  1  0  0  0  0
  2  3  1  6  0  0  0
  2  4  1  0  0  0  0
  2  5  1  0  0  0  0
  4 15  1  0  0  0  0
  5  6  1  1  0  0  0
  5  7  1  0  0  0  0
  5  8  1  0  0  0  0
  7 16  1  0  0  0  0
  8  9  2  6  0  0  0
  8 10  1  0  0  0  0
  8 11  1  0  0  0  0
 11 17  1  0  0  0  0
M  END
$$$$
ZINC000095185826
 OpenBabel11022112223D

 14 15  0  0  0  0  0  0  0  0999 V2000
    4.6397    0.0651   -3.3048 C   0  0  0  0  0  0  0  0  0  0  0  0
    4.2435   -0.3413   -2.1238 N   0  0  0  0  0  0  0  0  0  0  0  0
    3.9817    0.7014   -1.4129 N   0  0  0  0  0  0  0  0  0  0  0  0
    3.5062    0.6876   -0.0273 C   0  0  0  0  0  0  0  0  0  0  0  0
    1.9994    0.6671   -0.0134 C   0  0  0  0  0  0  0  0  0  0  0  0
    1.1987    1.7177   -0.0002 N   0  0  0  0  0  0  0  0  0  0  0  0
   -0.0154    1.2837    0.0091 N   0  0  0  0  0  0  0  0  0  0  0  0
    0.0021   -0.0041    0.0020 N   0  0  0  0  0  0  0  0  0  0  0  0
    1.2275   -0.4049   -0.0118 N   0  0  0  0  0  0  0  0  0  0  0  0
    4.2103    1.7574   -2.1137 N   0  0  0  0  0  0  0  0  0  0  0  0
    4.6169    1.3979   -3.2839 N   0  0  0  0  0  0  0  0  0  0  0  0
    4.9326   -0.5602   -4.1353 H   0  0  0  0  0  0  0  0  0  0  0  0
    3.8622    1.5798    0.4879 H   0  0  0  0  0  0  0  0  0  0  0  0
    3.8863   -0.2000    0.4785 H   0  0  0  0  0  0  0  0  0  0  0  0
  1 11  1  0  0  0  0
  1  2  2  0  0  0  0
  1 12  1  0  0  0  0
  2  3  1  0  0  0  0
  3  4  1  0  0  0  0
  3 10  1  0  0  0  0
  4  5  1  0  0  0  0
  4 13  1  0  0  0  0
  4 14  1  0  0  0  0
  5  9  1  0  0  0  0
  5  6  2  0  0  0  0
  6  7  1  0  0  0  0
  7  8  1  0  0  0  0
  8  9  2  0  0  0  0
 10 11  2  0  0  0  0
M  END
$$$$
ZINC000005812663
 OpenBabel11022112223D

 22 22  0  0  1  0  0  0  0  0999 V2000
   -0.0110    0.9628    0.0073 O   0  0  0  0  0  0  0  0  0  0  0  0
    1.2864    1.5618   -0.0018 C   0  0  0  0  0  0  0  0  0  0  0  0
    1.1449    3.0852    0.0077 C   0  0  2  0  0  0  0  0  0  0  0  0
    0.5324    3.3879    0.8570 H   0  0  0  0  0  0  0  0  0  0  0  0
    0.5223    3.5133   -1.2052 O   0  0  0  0  0  0  0  0  0  0  0  0
    2.5297    3.7253    0.1236 C   0  0  2  0  0  0  0  0  0  0  0  0
    3.1422    3.4225   -0.7257 H   0  0  0  0  0  0  0  0  0  0  0  0
    3.1523    3.2971    1.3365 O   0  0  0  0  0  0  0  0  0  0  0  0
    2.3882    5.2487    0.1332 C   0  0  2  0  0  0  0  0  0  0  0  0
    1.7758    5.5514    0.9825 H   0  0  0  0  0  0  0  0  0  0  0  0
    1.7656    5.6768   -1.0797 O   0  0  0  0  0  0  0  0  0  0  0  0
    3.7522    5.8791    0.2474 C   0  0  0  0  0  0  0  0  0  0  0  0
    4.6641    5.9683   -0.7099 N   0  0  0  0  0  0  0  0  0  0  0  0
    5.6887    6.5760   -0.2167 N   0  0  0  0  0  0  0  0  0  0  0  0
    5.4532    6.8622    1.0163 N   0  0  0  0  0  0  0  0  0  0  0  0
    4.2729    6.4459    1.3260 N   0  0  0  0  0  0  0  0  0  0  0  0
    0.0021   -0.0041    0.0020 H   0  0  0  0  0  0  0  0  0  0  0  0
    1.8401    1.2428    0.8812 H   0  0  0  0  0  0  0  0  0  0  0  0
    1.8231    1.2523   -0.8987 H   0  0  0  0  0  0  0  0  0  0  0  0
    1.0134    3.2774   -2.0040 H   0  0  0  0  0  0  0  0  0  0  0  0
    2.6611    3.5331    2.1354 H   0  0  0  0  0  0  0  0  0  0  0  0
    2.2568    5.4409   -1.8785 H   0  0  0  0  0  0  0  0  0  0  0  0
  1  2  1  0  0  0  0
  1 17  1  0  0  0  0
  2  3  1  0  0  0  0
  2 18  1  0  0  0  0
  2 19  1  0  0  0  0
  3  4  1  1  0  0  0
  3  5  1  0  0  0  0
  3  6  1  0  0  0  0
  5 20  1  0  0  0  0
  6  7  1  6  0  0  0
  6  8  1  0  0  0  0
  6  9  1  0  0  0  0
  8 21  1  0  0  0  0
  9 10  1  1  0  0  0
  9 11  1  0  0  0  0
  9 12  1  0  0  0  0
 11 22  1  0  0  0  0
 12 16  1  0  0  0  0
 12 13  2  0  0  0  0
 13 14  1  0  0  0  0
 14 15  2  0  0  0  0
 15 16  1  0  0  0  0
M  END
$$$$
ZINC000090367217
 OpenBabel11022112223D

 18 18  0  0  0  0  0  0  0  0999 V2000
    0.0251    1.4433    0.2887 C   0  0  0  0  0  0  0  0  0  0  0  0
    0.0224   -0.0135    0.1342 N   0  0  0  0  0  0  0  0  0  0  0  0
    0.0128   -0.5574   -1.0967 C   0  0  0  0  0  0  0  0  0  0  0  0
    0.0067    0.1724   -2.0743 O   0  0  0  0  0  0  0  0  0  0  0  0
    0.0102   -1.8766   -1.2660 N   0  0  0  0  0  0  0  0  0  0  0  0
    0.0171   -2.6989   -0.2215 C   0  0  0  0  0  0  0  0  0  0  0  0
    0.0147   -4.0629   -0.4149 N   0  0  0  0  0  0  0  0  0  0  0  0
    0.0272   -2.1722    1.0778 C   0  0  0  0  0  0  0  0  0  0  0  0
    0.0350   -3.0710    2.2539 N   0  0  0  0  0  0  0  0  0  0  0  0
   -0.0566   -2.6063    3.3761 O   0  0  0  0  0  0  0  0  0  0  0  0
    0.1329   -4.2752    2.0995 O   0  0  0  0  0  0  0  0  0  0  0  0
    0.0354   -0.8156    1.2404 C   0  0  0  0  0  0  0  0  0  0  0  0
    0.0458   -0.2747    2.4780 O   0  0  0  0  0  0  0  0  0  0  0  0
    1.0533    1.8041    0.3146 H   0  0  0  0  0  0  0  0  0  0  0  0
   -0.4987    1.8988   -0.5517 H   0  0  0  0  0  0  0  0  0  0  0  0
   -0.4774    1.7110    1.2182 H   0  0  0  0  0  0  0  0  0  0  0  0
   -0.0717   -4.4256   -1.3104 H   0  0  0  0  0  0  0  0  0  0  0  0
    0.0994   -4.6605    0.3444 H   0  0  0  0  0  0  0  0  0  0  0  0
  1  2  1  0  0  0  0
  1 14  1  0  0  0  0
  1 15  1  0  0  0  0
  1 16  1  0  0  0  0
  2 12  1  0  0  0  0
  2  3  1  0  0  0  0
  3  4  2  0  0  0  0
  3  5  1  0  0  0  0
  5  6  2  0  0  0  0
  6  7  1  0  0  0  0
  6  8  1  0  0  0  0
  7 17  1  0  0  0  0
  7 18  1  0  0  0  0
  8  9  1  0  0  0  0
  8 12  2  0  0  0  0
  9 10  2  0  0  0  0
  9 11  2  0  0  0  0
 12 13  1  0  0  0  0
M  END
$$$$
ZINC000090367217
 OpenBabel11022112223D

 18 18  0  0  0  0  0  0  0  0999 V2000
    0.0290    1.4471    0.2794 C   0  0  0  0  0  0  0  0  0  0  0  0
    0.0248   -0.0106    0.1328 N   0  0  0  0  0  0  0  0  0  0  0  0
    0.0145   -0.5572   -1.0965 C   0  0  0  0  0  0  0  0  0  0  0  0
    0.0088    0.1664   -2.0735 O   0  0  0  0  0  0  0  0  0  0  0  0
    0.0109   -1.8928   -1.2609 N   0  0  0  0  0  0  0  0  0  0  0  0
    0.0176   -2.7272   -0.1695 C   0  0  0  0  0  0  0  0  0  0  0  0
    0.0143   -4.0881   -0.3391 N   0  0  0  0  0  0  0  0  0  0  0  0
    0.0281   -2.1887    1.0871 C   0  0  0  0  0  0  0  0  0  0  0  0
    0.0355   -3.0658    2.2796 N   0  0  0  0  0  0  0  0  0  0  0  0
    0.1395   -4.2721    2.1476 O   0  0  0  0  0  0  0  0  0  0  0  0
   -0.0624   -2.5811    3.3927 O   0  0  0  0  0  0  0  0  0  0  0  0
    0.0369   -0.7924    1.2304 C   0  0  0  0  0  0  0  0  0  0  0  0
    0.0463   -0.2899    2.3412 O   0  0  0  0  0  0  0  0  0  0  0  0
    1.0577    1.8068    0.3033 H   0  0  0  0  0  0  0  0  0  0  0  0
   -0.4943    1.8985   -0.5634 H   0  0  0  0  0  0  0  0  0  0  0  0
   -0.4731    1.7204    1.2075 H   0  0  0  0  0  0  0  0  0  0  0  0
   -0.0730   -4.4658   -1.2282 H   0  0  0  0  0  0  0  0  0  0  0  0
    0.0993   -4.6728    0.4302 H   0  0  0  0  0  0  0  0  0  0  0  0
  1  2  1  0  0  0  0
  1 14  1  0  0  0  0
  1 15  1  0  0  0  0
  1 16  1  0  0  0  0
  2 12  1  0  0  0  0
  2  3  1  0  0  0  0
  3  4  2  0  0  0  0
  3  5  1  0  0  0  0
  5  6  1  0  0  0  0
  6  7  1  0  0  0  0
  6  8  2  0  0  0  0
  7 17  1  0  0  0  0
  7 18  1  0  0  0  0
  8  9  1  0  0  0  0
  8 12  1  0  0  0  0
  9 10  2  0  0  0  0
  9 11  2  0  0  0  0
 12 13  2  0  0  0  0
M  END
$$$$
ZINC000002578063
 OpenBabel11022112223D

 16 16  0  0  0  0  0  0  0  0999 V2000
    2.4665    5.3191    3.0537 C   0  0  0  0  0  0  0  0  0  0  0  0
    2.2961    4.8487    1.6321 C   0  0  0  0  0  0  0  0  0  0  0  0
    2.5340    5.6017    0.7116 O   0  0  0  0  0  0  0  0  0  0  0  0
    1.8792    3.5914    1.3837 N   0  0  0  0  0  0  0  0  0  0  0  0
    1.7136    3.1342    0.0018 C   0  0  0  0  0  0  0  0  0  0  0  0
    1.2421    1.7028   -0.0007 C   0  0  0  0  0  0  0  0  0  0  0  0
   -0.0154    1.2851    0.0091 N   0  0  0  0  0  0  0  0  0  0  0  0
    0.0021   -0.0041    0.0020 N   0  0  0  0  0  0  0  0  0  0  0  0
    1.2250   -0.4068   -0.0118 N   0  0  0  0  0  0  0  0  0  0  0  0
    2.0052    0.6196   -0.0138 N   0  0  0  0  0  0  0  0  0  0  0  0
    3.2029    4.6931    3.5576 H   0  0  0  0  0  0  0  0  0  0  0  0
    2.8075    6.3543    3.0554 H   0  0  0  0  0  0  0  0  0  0  0  0
    1.5124    5.2499    3.5761 H   0  0  0  0  0  0  0  0  0  0  0  0
    1.6889    2.9892    2.1199 H   0  0  0  0  0  0  0  0  0  0  0  0
    2.6677    3.2033   -0.5207 H   0  0  0  0  0  0  0  0  0  0  0  0
    0.9771    3.7601   -0.5022 H   0  0  0  0  0  0  0  0  0  0  0  0
  1  2  1  0  0  0  0
  1 11  1  0  0  0  0
  1 12  1  0  0  0  0
  1 13  1  0  0  0  0
  2  3  2  0  0  0  0
  2  4  1  0  0  0  0
  4  5  1  0  0  0  0
  4 14  1  0  0  0  0
  5  6  1  0  0  0  0
  5 15  1  0  0  0  0
  5 16  1  0  0  0  0
  6 10  1  0  0  0  0
  6  7  2  0  0  0  0
  7  8  1  0  0  0  0
  8  9  2  0  0  0  0
  9 10  1  0  0  0  0
M  END
$$$$
ZINC000095635356
 OpenBabel11022112223D

 18 18  0  0  1  0  0  0  0  0999 V2000
   -0.0184    1.5028    0.0103 C   0  0  0  0  0  0  0  0  0  0  0  0
    0.0021   -0.0041    0.0020 C   0  0  0  0  0  0  0  0  0  0  0  0
   -1.1221   -0.6197    0.0042 N   0  0  0  0  0  0  0  0  0  0  0  0
   -1.2197   -2.0811   -0.0144 C   0  0  1  0  0  0  0  0  0  0  0  0
   -1.3209   -2.5656   -1.4378 C   0  0  0  0  0  0  0  0  0  0  0  0
   -1.8153   -3.7919   -1.6988 N   0  0  0  0  0  0  0  0  0  0  0  0
   -0.9575   -1.8519   -2.3486 O   0  0  0  0  0  0  0  0  0  0  0  0
    0.0290   -2.6488    0.6312 C   0  0  0  0  0  0  0  0  0  0  0  0
   -0.0092   -3.6169    1.3524 O   0  0  0  0  0  0  0  0  0  0  0  0
    1.3166   -1.9392    0.3228 C   0  0  0  0  0  0  0  0  0  0  0  0
    2.3866   -2.5099    0.3672 O   0  0  0  0  0  0  0  0  0  0  0  0
    1.2210   -0.6292   -0.0130 N   0  0  0  0  0  0  0  0  0  0  0  0
    1.0042    1.8801    0.0026 H   0  0  0  0  0  0  0  0  0  0  0  0
   -0.5455    1.8639   -0.8728 H   0  0  0  0  0  0  0  0  0  0  0  0
   -0.5286    1.8543    0.9071 H   0  0  0  0  0  0  0  0  0  0  0  0
   -2.0999   -2.3979    0.5450 H   0  0  0  0  0  0  0  0  0  0  0  0
   -2.1059   -4.3627   -0.9704 H   0  0  0  0  0  0  0  0  0  0  0  0
   -1.8804   -4.1037   -2.6150 H   0  0  0  0  0  0  0  0  0  0  0  0
  1  2  1  0  0  0  0
  1 13  1  0  0  0  0
  1 14  1  0  0  0  0
  1 15  1  0  0  0  0
  2 12  1  0  0  0  0
  2  3  2  0  0  0  0
  3  4  1  0  0  0  0
  4  5  1  0  0  0  0
  4  8  1  0  0  0  0
  4 16  1  1  0  0  0
  5  6  1  0  0  0  0
  5  7  2  0  0  0  0
  6 17  1  0  0  0  0
  6 18  1  0  0  0  0
  8  9  2  0  0  0  0
  8 10  1  0  0  0  0
 10 11  2  0  0  0  0
 10 12  1  0  0  0  0
M  END
$$$$
ZINC000217970520
 OpenBabel11022112223D

 22 22  0  0  1  0  0  0  0  0999 V2000
   -0.0187    1.5258    0.0104 C   0  0  0  0  0  0  0  0  0  0  0  0
    0.0021   -0.0041    0.0020 C   0  0  0  0  0  0  0  0  0  0  0  0
   -1.6997   -0.6320    0.0149 S   0  0  0  0  0  0  0  0  0  0  0  0
   -2.3060   -0.2715    1.2485 O   0  0  0  0  0  0  0  0  0  0  0  0
   -2.3294   -0.2583   -1.2030 O   0  0  0  0  0  0  0  0  0  0  0  0
   -1.4371   -2.4268    0.0027 C   0  0  2  0  0  0  0  0  0  0  0  0
   -0.6113   -2.7852    0.6174 H   0  0  0  0  0  0  0  0  0  0  0  0
   -1.7230   -3.1738   -1.3015 C   0  0  0  0  0  0  0  0  0  0  0  0
   -2.6734   -3.3210   -0.1106 C   0  0  2  0  0  0  0  0  0  0  0  0
   -3.9823   -2.6604   -0.2017 N   0  0  0  0  0  0  0  0  0  0  0  0
   -2.6562   -4.6301    0.6357 C   0  0  0  0  0  0  0  0  0  0  0  0
   -1.8005   -5.4622    0.3873 O   0  0  0  0  0  0  0  0  0  0  0  0
   -3.4981   -4.8571    1.4879 O   0  0  0  0  0  0  0  0  0  0  0  0
    1.0039    1.9031    0.0027 H   0  0  0  0  0  0  0  0  0  0  0  0
   -0.5459    1.8868   -0.8726 H   0  0  0  0  0  0  0  0  0  0  0  0
   -0.5289    1.8773    0.9072 H   0  0  0  0  0  0  0  0  0  0  0  0
    0.5123   -0.3556   -0.8948 H   0  0  0  0  0  0  0  0  0  0  0  0
    0.5293   -0.3651    0.8851 H   0  0  0  0  0  0  0  0  0  0  0  0
   -2.0690   -2.5868   -2.1523 H   0  0  0  0  0  0  0  0  0  0  0  0
   -1.0857   -4.0239   -1.5447 H   0  0  0  0  0  0  0  0  0  0  0  0
   -4.7257   -3.3390   -0.2724 H   0  0  0  0  0  0  0  0  0  0  0  0
   -4.1306   -2.0420    0.5817 H   0  0  0  0  0  0  0  0  0  0  0  0
  1  2  1  0  0  0  0
  1 14  1  0  0  0  0
  1 15  1  0  0  0  0
  1 16  1  0  0  0  0
  2  3  1  0  0  0  0
  2 17  1  0  0  0  0
  2 18  1  0  0  0  0
  3  4  2  0  0  0  0
  3  5  2  0  0  0  0
  3  6  1  0  0  0  0
  6  7  1  1  0  0  0
  6  9  1  0  0  0  0
  6  8  1  0  0  0  0
  8  9  1  0  0  0  0
  8 19  1  0  0  0  0
  8 20  1  0  0  0  0
  9 10  1  6  0  0  0
  9 11  1  0  0  0  0
 10 21  1  0  0  0  0
 10 22  1  0  0  0  0
 11 12  2  0  0  0  0
 11 13  1  0  0  0  0
M  END
$$$$
ZINC000217970727
 OpenBabel11022112223D

 22 22  0  0  1  0  0  0  0  0999 V2000
   -0.0187    1.5258    0.0104 C   0  0  0  0  0  0  0  0  0  0  0  0
    0.0021   -0.0041    0.0020 C   0  0  0  0  0  0  0  0  0  0  0  0
   -1.6997   -0.6320    0.0149 S   0  0  0  0  0  0  0  0  0  0  0  0
   -2.3060   -0.2715    1.2485 O   0  0  0  0  0  0  0  0  0  0  0  0
   -2.3294   -0.2583   -1.2030 O   0  0  0  0  0  0  0  0  0  0  0  0
   -1.4371   -2.4268    0.0027 C   0  0  1  0  0  0  0  0  0  0  0  0
   -0.5716   -2.7714   -0.5632 H   0  0  0  0  0  0  0  0  0  0  0  0
   -1.8094   -3.2038    1.2670 C   0  0  0  0  0  0  0  0  0  0  0  0
   -2.6775   -3.3224    0.0118 C   0  0  1  0  0  0  0  0  0  0  0  0
   -3.9901   -2.6631    0.0302 N   0  0  0  0  0  0  0  0  0  0  0  0
   -2.6092   -4.6137   -0.7620 C   0  0  0  0  0  0  0  0  0  0  0  0
   -3.3918   -4.8201   -1.6739 O   0  0  0  0  0  0  0  0  0  0  0  0
   -1.7714   -5.4521   -0.4762 O   0  0  0  0  0  0  0  0  0  0  0  0
    1.0039    1.9031    0.0027 H   0  0  0  0  0  0  0  0  0  0  0  0
   -0.5459    1.8868   -0.8726 H   0  0  0  0  0  0  0  0  0  0  0  0
   -0.5289    1.8773    0.9072 H   0  0  0  0  0  0  0  0  0  0  0  0
    0.5123   -0.3556   -0.8948 H   0  0  0  0  0  0  0  0  0  0  0  0
    0.5293   -0.3651    0.8851 H   0  0  0  0  0  0  0  0  0  0  0  0
   -1.1892   -4.0599    1.5326 H   0  0  0  0  0  0  0  0  0  0  0  0
   -2.2122   -2.6366    2.1061 H   0  0  0  0  0  0  0  0  0  0  0  0
   -4.7360   -3.3426    0.0350 H   0  0  0  0  0  0  0  0  0  0  0  0
   -4.0683   -2.0349    0.8159 H   0  0  0  0  0  0  0  0  0  0  0  0
  1  2  1  0  0  0  0
  1 14  1  0  0  0  0
  1 15  1  0  0  0  0
  1 16  1  0  0  0  0
  2  3  1  0  0  0  0
  2 17  1  0  0  0  0
  2 18  1  0  0  0  0
  3  4  2  0  0  0  0
  3  5  2  0  0  0  0
  3  6  1  0  0  0  0
  6  7  1  6  0  0  0
  6  9  1  0  0  0  0
  6  8  1  0  0  0  0
  8  9  1  0  0  0  0
  8 19  1  0  0  0  0
  8 20  1  0  0  0  0
  9 10  1  1  0  0  0
  9 11  1  0  0  0  0
 10 21  1  0  0  0  0
 10 22  1  0  0  0  0
 11 12  2  0  0  0  0
 11 13  1  0  0  0  0
M  END
$$$$
ZINC000217970665
 OpenBabel11022112223D

 22 22  0  0  1  0  0  0  0  0999 V2000
   -0.0187    1.5258    0.0104 C   0  0  0  0  0  0  0  0  0  0  0  0
    0.0021   -0.0041    0.0020 C   0  0  0  0  0  0  0  0  0  0  0  0
   -1.6997   -0.6320    0.0149 S   0  0  0  0  0  0  0  0  0  0  0  0
   -2.3060   -0.2715    1.2485 O   0  0  0  0  0  0  0  0  0  0  0  0
   -2.3294   -0.2583   -1.2030 O   0  0  0  0  0  0  0  0  0  0  0  0
   -1.4371   -2.4268    0.0027 C   0  0  2  0  0  0  0  0  0  0  0  0
   -0.6113   -2.7852    0.6174 H   0  0  0  0  0  0  0  0  0  0  0  0
   -1.7230   -3.1738   -1.3015 C   0  0  0  0  0  0  0  0  0  0  0  0
   -2.6734   -3.3210   -0.1106 C   0  0  1  0  0  0  0  0  0  0  0  0
   -2.6567   -4.5971    0.6169 N   0  0  0  0  0  0  0  0  0  0  0  0
   -4.0162   -2.6433   -0.2041 C   0  0  0  0  0  0  0  0  0  0  0  0
   -4.8671   -2.8571    0.6425 O   0  0  0  0  0  0  0  0  0  0  0  0
   -4.2516   -1.8813   -1.1262 O   0  0  0  0  0  0  0  0  0  0  0  0
    1.0039    1.9031    0.0027 H   0  0  0  0  0  0  0  0  0  0  0  0
   -0.5459    1.8868   -0.8726 H   0  0  0  0  0  0  0  0  0  0  0  0
   -0.5289    1.8773    0.9072 H   0  0  0  0  0  0  0  0  0  0  0  0
    0.5123   -0.3556   -0.8948 H   0  0  0  0  0  0  0  0  0  0  0  0
    0.5293   -0.3651    0.8851 H   0  0  0  0  0  0  0  0  0  0  0  0
   -2.0690   -2.5868   -2.1523 H   0  0  0  0  0  0  0  0  0  0  0  0
   -1.0857   -4.0239   -1.5447 H   0  0  0  0  0  0  0  0  0  0  0  0
   -3.5163   -5.1058    0.4744 H   0  0  0  0  0  0  0  0  0  0  0  0
   -1.8585   -5.1542    0.3514 H   0  0  0  0  0  0  0  0  0  0  0  0
  1  2  1  0  0  0  0
  1 14  1  0  0  0  0
  1 15  1  0  0  0  0
  1 16  1  0  0  0  0
  2  3  1  0  0  0  0
  2 17  1  0  0  0  0
  2 18  1  0  0  0  0
  3  4  2  0  0  0  0
  3  5  2  0  0  0  0
  3  6  1  0  0  0  0
  6  7  1  1  0  0  0
  6  9  1  0  0  0  0
  6  8  1  0  0  0  0
  8  9  1  0  0  0  0
  8 19  1  0  0  0  0
  8 20  1  0  0  0  0
  9 10  1  1  0  0  0
  9 11  1  0  0  0  0
 10 21  1  0  0  0  0
 10 22  1  0  0  0  0
 11 12  2  0  0  0  0
 11 13  1  0  0  0  0
M  END
$$$$
ZINC000217970592
 OpenBabel11022112223D

 22 22  0  0  1  0  0  0  0  0999 V2000
   -0.0187    1.5258    0.0104 C   0  0  0  0  0  0  0  0  0  0  0  0
    0.0021   -0.0041    0.0020 C   0  0  0  0  0  0  0  0  0  0  0  0
   -1.6997   -0.6320    0.0149 S   0  0  0  0  0  0  0  0  0  0  0  0
   -2.3060   -0.2715    1.2485 O   0  0  0  0  0  0  0  0  0  0  0  0
   -2.3294   -0.2583   -1.2030 O   0  0  0  0  0  0  0  0  0  0  0  0
   -1.4371   -2.4268    0.0027 C   0  0  1  0  0  0  0  0  0  0  0  0
   -0.5716   -2.7714   -0.5632 H   0  0  0  0  0  0  0  0  0  0  0  0
   -1.8094   -3.2038    1.2670 C   0  0  0  0  0  0  0  0  0  0  0  0
   -2.6775   -3.3224    0.0118 C   0  0  2  0  0  0  0  0  0  0  0  0
   -2.6109   -4.5812   -0.7425 N   0  0  0  0  0  0  0  0  0  0  0  0
   -4.0241   -2.6460    0.0307 C   0  0  0  0  0  0  0  0  0  0  0  0
   -4.3215   -1.9056    0.9525 O   0  0  0  0  0  0  0  0  0  0  0  0
   -4.8161   -2.8393   -0.8759 O   0  0  0  0  0  0  0  0  0  0  0  0
    1.0039    1.9031    0.0027 H   0  0  0  0  0  0  0  0  0  0  0  0
   -0.5459    1.8868   -0.8726 H   0  0  0  0  0  0  0  0  0  0  0  0
   -0.5289    1.8773    0.9072 H   0  0  0  0  0  0  0  0  0  0  0  0
    0.5123   -0.3556   -0.8948 H   0  0  0  0  0  0  0  0  0  0  0  0
    0.5293   -0.3651    0.8851 H   0  0  0  0  0  0  0  0  0  0  0  0
   -1.1892   -4.0599    1.5326 H   0  0  0  0  0  0  0  0  0  0  0  0
   -2.2122   -2.6366    2.1061 H   0  0  0  0  0  0  0  0  0  0  0  0
   -3.4778   -5.0924   -0.6699 H   0  0  0  0  0  0  0  0  0  0  0  0
   -2.3706   -4.4120   -1.7077 H   0  0  0  0  0  0  0  0  0  0  0  0
  1  2  1  0  0  0  0
  1 14  1  0  0  0  0
  1 15  1  0  0  0  0
  1 16  1  0  0  0  0
  2  3  1  0  0  0  0
  2 17  1  0  0  0  0
  2 18  1  0  0  0  0
  3  4  2  0  0  0  0
  3  5  2  0  0  0  0
  3  6  1  0  0  0  0
  6  7  1  6  0  0  0
  6  9  1  0  0  0  0
  6  8  1  0  0  0  0
  8  9  1  0  0  0  0
  8 19  1  0  0  0  0
  8 20  1  0  0  0  0
  9 10  1  6  0  0  0
  9 11  1  0  0  0  0
 10 21  1  0  0  0  0
 10 22  1  0  0  0  0
 11 12  2  0  0  0  0
 11 13  1  0  0  0  0
M  END
$$$$
ZINC000005812667
 OpenBabel11022112223D

 22 22  0  0  1  0  0  0  0  0999 V2000
   -0.2689    1.2867   -4.8965 O   0  0  0  0  0  0  0  0  0  0  0  0
   -0.9306    1.7430   -3.7150 C   0  0  0  0  0  0  0  0  0  0  0  0
   -0.1160    1.3371   -2.4851 C   0  0  2  0  0  0  0  0  0  0  0  0
    0.9030    1.7111   -2.5845 H   0  0  0  0  0  0  0  0  0  0  0  0
   -0.0921   -0.0877   -2.3787 O   0  0  0  0  0  0  0  0  0  0  0  0
   -0.7573    1.9316   -1.2297 C   0  0  1  0  0  0  0  0  0  0  0  0
   -0.6956    3.0191   -1.2703 H   0  0  0  0  0  0  0  0  0  0  0  0
   -2.1283    1.5346   -1.1615 O   0  0  0  0  0  0  0  0  0  0  0  0
   -0.0173    1.4248    0.0099 C   0  0  2  0  0  0  0  0  0  0  0  0
    1.0053    1.8021    0.0021 H   0  0  0  0  0  0  0  0  0  0  0  0
    0.0021   -0.0041    0.0020 O   0  0  0  0  0  0  0  0  0  0  0  0
   -0.7227    1.9108    1.2498 C   0  0  0  0  0  0  0  0  0  0  0  0
   -1.8640    1.4506    1.7411 N   0  0  0  0  0  0  0  0  0  0  0  0
   -2.1286    2.1242    2.8082 N   0  0  0  0  0  0  0  0  0  0  0  0
   -1.1982    2.9941    2.9966 N   0  0  0  0  0  0  0  0  0  0  0  0
   -0.3239    2.8844    2.0553 N   0  0  0  0  0  0  0  0  0  0  0  0
   -0.7302    1.5095   -5.7166 H   0  0  0  0  0  0  0  0  0  0  0  0
   -1.9225    1.2948   -3.6579 H   0  0  0  0  0  0  0  0  0  0  0  0
   -1.0238    2.8286   -3.7470 H   0  0  0  0  0  0  0  0  0  0  0  0
   -0.9667   -0.4900   -2.2872 H   0  0  0  0  0  0  0  0  0  0  0  0
   -2.2591    0.5772   -1.1226 H   0  0  0  0  0  0  0  0  0  0  0  0
   -0.8759   -0.4094    0.0082 H   0  0  0  0  0  0  0  0  0  0  0  0
  1  2  1  0  0  0  0
  1 17  1  0  0  0  0
  2  3  1  0  0  0  0
  2 18  1  0  0  0  0
  2 19  1  0  0  0  0
  3  4  1  6  0  0  0
  3  5  1  0  0  0  0
  3  6  1  0  0  0  0
  5 20  1  0  0  0  0
  6  7  1  6  0  0  0
  6  8  1  0  0  0  0
  6  9  1  0  0  0  0
  8 21  1  0  0  0  0
  9 10  1  6  0  0  0
  9 11  1  0  0  0  0
  9 12  1  0  0  0  0
 11 22  1  0  0  0  0
 12 16  1  0  0  0  0
 12 13  2  0  0  0  0
 13 14  1  0  0  0  0
 14 15  2  0  0  0  0
 15 16  1  0  0  0  0
M  END
$$$$
ZINC000000967237
 OpenBabel11022112223D

 20 20  0  0  0  0  0  0  0  0999 V2000
   -0.6452    1.4754    1.0839 C   0  0  0  0  0  0  0  0  0  0  0  0
   -0.6338   -0.0314    1.0616 C   0  0  0  0  0  0  0  0  0  0  0  0
   -0.1541   -0.6483    1.9897 O   0  0  0  0  0  0  0  0  0  0  0  0
   -1.1572   -0.6946    0.0094 N   0  0  0  0  0  0  0  0  0  0  0  0
   -1.0525   -2.0998   -0.0617 C   0  0  0  0  0  0  0  0  0  0  0  0
   -2.1845   -2.8845   -0.1454 C   0  0  0  0  0  0  0  0  0  0  0  0
   -3.4314   -2.3068   -0.1606 N   0  0  0  0  0  0  0  0  0  0  0  0
   -2.0502   -4.2518   -0.2139 N   0  0  0  0  0  0  0  0  0  0  0  0
   -0.8296   -4.8175   -0.1995 C   0  0  0  0  0  0  0  0  0  0  0  0
   -0.7320   -6.0280   -0.2613 O   0  0  0  0  0  0  0  0  0  0  0  0
    0.2846   -4.0687   -0.1184 N   0  0  0  0  0  0  0  0  0  0  0  0
    0.2085   -2.7250   -0.0545 C   0  0  0  0  0  0  0  0  0  0  0  0
    1.2251   -2.0555    0.0189 O   0  0  0  0  0  0  0  0  0  0  0  0
   -0.1832    1.8286    2.0058 H   0  0  0  0  0  0  0  0  0  0  0  0
   -0.0866    1.8556    0.2286 H   0  0  0  0  0  0  0  0  0  0  0  0
   -1.6741    1.8317    1.0334 H   0  0  0  0  0  0  0  0  0  0  0  0
   -1.6054   -0.2052   -0.6981 H   0  0  0  0  0  0  0  0  0  0  0  0
   -3.5195   -1.3420   -0.1124 H   0  0  0  0  0  0  0  0  0  0  0  0
   -4.2233   -2.8638   -0.2196 H   0  0  0  0  0  0  0  0  0  0  0  0
   -2.8403   -4.8115   -0.2726 H   0  0  0  0  0  0  0  0  0  0  0  0
  1  2  1  0  0  0  0
  1 14  1  0  0  0  0
  1 15  1  0  0  0  0
  1 16  1  0  0  0  0
  2  3  2  0  0  0  0
  2  4  1  0  0  0  0
  4  5  1  0  0  0  0
  4 17  1  0  0  0  0
  5 12  1  0  0  0  0
  5  6  2  0  0  0  0
  6  7  1  0  0  0  0
  6  8  1  0  0  0  0
  7 18  1  0  0  0  0
  7 19  1  0  0  0  0
  8  9  1  0  0  0  0
  8 20  1  0  0  0  0
  9 10  2  0  0  0  0
  9 11  1  0  0  0  0
 11 12  1  0  0  0  0
 12 13  2  0  0  0  0
M  END
$$$$
ZINC000001597927
 OpenBabel11022112223D

 19 20  0  0  0  0  0  0  0  0999 V2000
   -0.0184    1.5028    0.0103 C   0  0  0  0  0  0  0  0  0  0  0  0
    0.0021   -0.0041    0.0020 C   0  0  0  0  0  0  0  0  0  0  0  0
    0.0049   -0.6200   -1.1456 N   0  0  0  0  0  0  0  0  0  0  0  0
    0.0232   -1.9586   -1.2248 C   0  0  0  0  0  0  0  0  0  0  0  0
    0.0396   -2.7170   -0.0613 C   0  0  0  0  0  0  0  0  0  0  0  0
    0.0574   -4.0938   -0.1479 N   0  0  0  0  0  0  0  0  0  0  0  0
    0.0591   -4.7042   -1.3471 C   0  0  0  0  0  0  0  0  0  0  0  0
    0.0750   -5.9195   -1.3846 O   0  0  0  0  0  0  0  0  0  0  0  0
    0.0433   -4.0226   -2.5041 N   0  0  0  0  0  0  0  0  0  0  0  0
    0.0262   -2.6714   -2.5192 C   0  0  0  0  0  0  0  0  0  0  0  0
    0.0116   -2.0590   -3.5691 O   0  0  0  0  0  0  0  0  0  0  0  0
    0.0366   -2.0117    1.2230 C   0  0  0  0  0  0  0  0  0  0  0  0
    0.0504   -2.6188    2.2792 O   0  0  0  0  0  0  0  0  0  0  0  0
    0.0222   -0.6579    1.1891 N   0  0  0  0  0  0  0  0  0  0  0  0
    1.0042    1.8801    0.0026 H   0  0  0  0  0  0  0  0  0  0  0  0
   -0.5455    1.8639   -0.8728 H   0  0  0  0  0  0  0  0  0  0  0  0
   -0.5286    1.8543    0.9071 H   0  0  0  0  0  0  0  0  0  0  0  0
    0.0453   -4.5085   -3.3436 H   0  0  0  0  0  0  0  0  0  0  0  0
    0.0201   -0.1541    2.0180 H   0  0  0  0  0  0  0  0  0  0  0  0
  1  2  1  0  0  0  0
  1 15  1  0  0  0  0
  1 16  1  0  0  0  0
  1 17  1  0  0  0  0
  2 14  1  0  0  0  0
  2  3  2  0  0  0  0
  3  4  1  0  0  0  0
  4 10  1  0  0  0  0
  4  5  2  0  0  0  0
  5  6  1  0  0  0  0
  5 12  1  0  0  0  0
  6  7  1  0  0  0  0
  7  8  2  0  0  0  0
  7  9  1  0  0  0  0
  9 10  1  0  0  0  0
  9 18  1  0  0  0  0
 10 11  2  0  0  0  0
 12 13  2  0  0  0  0
 12 14  1  0  0  0  0
 14 19  1  0  0  0  0
M  END
$$$$
ZINC000001752132
 OpenBabel11022112223D

 22 22  0  0  1  0  0  0  0  0999 V2000
   -0.0187    1.5258    0.0104 C   0  0  0  0  0  0  0  0  0  0  0  0
    0.0021   -0.0041    0.0020 C   0  0  1  0  0  0  0  0  0  0  0  0
   -1.4434   -0.4970    0.0948 C   0  0  0  0  0  0  0  0  0  0  0  0
   -1.4618   -2.0269    0.0889 C   0  0  0  0  0  0  0  0  0  0  0  0
   -2.8119   -2.4873    0.1756 O   0  0  0  0  0  0  0  0  0  0  0  0
    0.5678   -0.4612   -1.3293 C   0  0  0  0  0  0  0  0  0  0  0  0
    0.0491   -0.1392   -2.3766 O   0  0  0  0  0  0  0  0  0  0  0  0
    1.6706   -1.2393   -1.3044 N   0  0  0  0  0  0  0  0  0  0  0  0
    2.2552   -1.6030   -0.1572 C   0  0  0  0  0  0  0  0  0  0  0  0
    3.2446   -2.3046   -0.2272 O   0  0  0  0  0  0  0  0  0  0  0  0
    1.8301   -1.2502    1.0613 N   0  0  0  0  0  0  0  0  0  0  0  0
    0.7412   -0.4729    1.2411 C   0  0  0  0  0  0  0  0  0  0  0  0
    0.3674   -0.1615    2.3515 O   0  0  0  0  0  0  0  0  0  0  0  0
    1.0039    1.9031    0.0027 H   0  0  0  0  0  0  0  0  0  0  0  0
   -0.5459    1.8868   -0.8726 H   0  0  0  0  0  0  0  0  0  0  0  0
   -0.5289    1.8773    0.9072 H   0  0  0  0  0  0  0  0  0  0  0  0
   -1.8933   -0.1317    1.0180 H   0  0  0  0  0  0  0  0  0  0  0  0
   -2.0101   -0.1236   -0.7581 H   0  0  0  0  0  0  0  0  0  0  0  0
   -1.0119   -2.3922   -0.8342 H   0  0  0  0  0  0  0  0  0  0  0  0
   -0.8951   -2.4003    0.9419 H   0  0  0  0  0  0  0  0  0  0  0  0
   -2.8997   -3.4503    0.1769 H   0  0  0  0  0  0  0  0  0  0  0  0
    2.3189   -1.5624    1.8388 H   0  0  0  0  0  0  0  0  0  0  0  0
  1 14  1  0  0  0  0
  1 15  1  0  0  0  0
  1 16  1  0  0  0  0
  2  1  1  1  0  0  0
  2 12  1  0  0  0  0
  2  3  1  0  0  0  0
  2  6  1  0  0  0  0
  3  4  1  0  0  0  0
  3 17  1  0  0  0  0
  3 18  1  0  0  0  0
  4  5  1  0  0  0  0
  4 19  1  0  0  0  0
  4 20  1  0  0  0  0
  5 21  1  0  0  0  0
  6  7  2  0  0  0  0
  6  8  1  0  0  0  0
  8  9  1  0  0  0  0
  9 10  2  0  0  0  0
  9 11  1  0  0  0  0
 11 12  1  0  0  0  0
 11 22  1  0  0  0  0
 12 13  2  0  0  0  0
M  END
$$$$
